                                  MODFLOW-NWT      
      U.S. GEOLOGICAL SURVEY MODULAR FINITE-DIFFERENCE GROUNDWATER-FLOW MODEL
                            VERSION 1.0.2 10/03/2011
                    BASED ON MODFLOW-2005 VERSION 1.8.00 12/18/2009

 LIST FILE: .\Ex_prob2\Pr2MF2005.LST
                         UNIT    1

 OPENING .\Ex_prob2\Pr2.BA6
 FILE TYPE:BAS6   UNIT    2   STATUS:OLD    
 FORMAT:FORMATTED              ACCESS:SEQUENTIAL          

 OPENING .\Ex_prob2\Pr2.DIS
 FILE TYPE:DIS   UNIT   10   STATUS:OLD    
 FORMAT:FORMATTED              ACCESS:SEQUENTIAL          

 OPENING .\Ex_prob2\Pr2.RCH
 FILE TYPE:RCH   UNIT   18   STATUS:OLD    
 FORMAT:FORMATTED              ACCESS:SEQUENTIAL          

 OPENING .\Ex_prob2\Pr2.OC
 FILE TYPE:OC   UNIT   20   STATUS:OLD    
 FORMAT:FORMATTED              ACCESS:SEQUENTIAL          

 OPENING .\Ex_prob2\Pr2MF2005.BUD
 FILE TYPE:DATA(BINARY)   UNIT   32   STATUS:UNKNOWN
 FORMAT:BINARY                 ACCESS:SEQUENTIAL          

 OPENING .\Ex_prob2\Pr2.PCG
 FILE TYPE:PCG   UNIT   35   STATUS:OLD    
 FORMAT:FORMATTED              ACCESS:SEQUENTIAL          

 OPENING .\Ex_prob2\Pr2.LPF
 FILE TYPE:LPF   UNIT   34   STATUS:OLD    
 FORMAT:FORMATTED              ACCESS:SEQUENTIAL          

 BAS -- BASIC PACKAGE, VERSION 7, 5/2/2005 INPUT READ FROM UNIT    2

 DISCRETIZATION INPUT DATA READ FROM UNIT   10
   14 LAYERS        40 ROWS        40 COLUMNS
    3 STRESS PERIOD(S) IN SIMULATION
 MODEL TIME UNIT IS DAYS
 MODEL LENGTH UNIT IS UNDEFINED
  Confining bed flag for each layer:
   0   0   0   0   0   0   0   0   0   0   0   0   0   0

                     DELR =   125.000    

                     DELC =   125.000    

 TOP ELEVATION OF LAYER 1 =   80.0000    

   MODEL LAYER BOTTOM EL. =   65.0000     FOR LAYER   1

   MODEL LAYER BOTTOM EL. =   60.0000     FOR LAYER   2

   MODEL LAYER BOTTOM EL. =   55.0000     FOR LAYER   3

   MODEL LAYER BOTTOM EL. =   50.0000     FOR LAYER   4

   MODEL LAYER BOTTOM EL. =   45.0000     FOR LAYER   5

   MODEL LAYER BOTTOM EL. =   40.0000     FOR LAYER   6

   MODEL LAYER BOTTOM EL. =   35.0000     FOR LAYER   7

   MODEL LAYER BOTTOM EL. =   30.0000     FOR LAYER   8

   MODEL LAYER BOTTOM EL. =   25.0000     FOR LAYER   9

   MODEL LAYER BOTTOM EL. =   20.0000     FOR LAYER  10

   MODEL LAYER BOTTOM EL. =   15.0000     FOR LAYER  11

   MODEL LAYER BOTTOM EL. =   10.0000     FOR LAYER  12

   MODEL LAYER BOTTOM EL. =   5.00000     FOR LAYER  13

   MODEL LAYER BOTTOM EL. =   0.00000     FOR LAYER  14


 STRESS PERIOD     LENGTH       TIME STEPS     MULTIPLIER FOR DELT    SS FLAG
 ----------------------------------------------------------------------------
        1         190.0000         10                    1.000         TR
        2         518.0000          2                    1.000         TR
        3         1922.000         17                    1.000         TR

 TRANSIENT SIMULATION



 
 #BCF2 sample problem 2                                                          
 #Mounding under a recharge pond                                                 
 THE FREE FORMAT OPTION HAS BEEN SELECTED

           BOUNDARY ARRAY =              1 FOR LAYER   1

           BOUNDARY ARRAY =              1 FOR LAYER   2

           BOUNDARY ARRAY =              1 FOR LAYER   3

           BOUNDARY ARRAY =              1 FOR LAYER   4

           BOUNDARY ARRAY =              1 FOR LAYER   5

           BOUNDARY ARRAY =              1 FOR LAYER   6

           BOUNDARY ARRAY =              1 FOR LAYER   7

           BOUNDARY ARRAY =              1 FOR LAYER   8

           BOUNDARY ARRAY =              1 FOR LAYER   9



                     BOUNDARY ARRAY FOR LAYER  10
 READING ON UNIT    2 WITH FORMAT: (20I4)              

       1  2  3  4  5  6  7  8  9 10 11 12 13 14 15 16 17 18 19 20 21 22 23 24 25 26 27 28 29 30 31 32 33 34 35 36 37 38 39 40
 ............................................................................................................................
   1   1  1  1  1  1  1  1  1  1  1  1  1  1  1  1  1  1  1  1  1  1  1  1  1  1  1  1  1  1  1  1  1  1  1  1  1  1  1  1 -1
   2   1  1  1  1  1  1  1  1  1  1  1  1  1  1  1  1  1  1  1  1  1  1  1  1  1  1  1  1  1  1  1  1  1  1  1  1  1  1  1 -1
   3   1  1  1  1  1  1  1  1  1  1  1  1  1  1  1  1  1  1  1  1  1  1  1  1  1  1  1  1  1  1  1  1  1  1  1  1  1  1  1 -1
   4   1  1  1  1  1  1  1  1  1  1  1  1  1  1  1  1  1  1  1  1  1  1  1  1  1  1  1  1  1  1  1  1  1  1  1  1  1  1  1 -1
   5   1  1  1  1  1  1  1  1  1  1  1  1  1  1  1  1  1  1  1  1  1  1  1  1  1  1  1  1  1  1  1  1  1  1  1  1  1  1  1 -1
   6   1  1  1  1  1  1  1  1  1  1  1  1  1  1  1  1  1  1  1  1  1  1  1  1  1  1  1  1  1  1  1  1  1  1  1  1  1  1  1 -1
   7   1  1  1  1  1  1  1  1  1  1  1  1  1  1  1  1  1  1  1  1  1  1  1  1  1  1  1  1  1  1  1  1  1  1  1  1  1  1  1 -1
   8   1  1  1  1  1  1  1  1  1  1  1  1  1  1  1  1  1  1  1  1  1  1  1  1  1  1  1  1  1  1  1  1  1  1  1  1  1  1  1 -1
   9   1  1  1  1  1  1  1  1  1  1  1  1  1  1  1  1  1  1  1  1  1  1  1  1  1  1  1  1  1  1  1  1  1  1  1  1  1  1  1 -1
  10   1  1  1  1  1  1  1  1  1  1  1  1  1  1  1  1  1  1  1  1  1  1  1  1  1  1  1  1  1  1  1  1  1  1  1  1  1  1  1 -1
  11   1  1  1  1  1  1  1  1  1  1  1  1  1  1  1  1  1  1  1  1  1  1  1  1  1  1  1  1  1  1  1  1  1  1  1  1  1  1  1 -1
  12   1  1  1  1  1  1  1  1  1  1  1  1  1  1  1  1  1  1  1  1  1  1  1  1  1  1  1  1  1  1  1  1  1  1  1  1  1  1  1 -1
  13   1  1  1  1  1  1  1  1  1  1  1  1  1  1  1  1  1  1  1  1  1  1  1  1  1  1  1  1  1  1  1  1  1  1  1  1  1  1  1 -1
  14   1  1  1  1  1  1  1  1  1  1  1  1  1  1  1  1  1  1  1  1  1  1  1  1  1  1  1  1  1  1  1  1  1  1  1  1  1  1  1 -1
  15   1  1  1  1  1  1  1  1  1  1  1  1  1  1  1  1  1  1  1  1  1  1  1  1  1  1  1  1  1  1  1  1  1  1  1  1  1  1  1 -1
  16   1  1  1  1  1  1  1  1  1  1  1  1  1  1  1  1  1  1  1  1  1  1  1  1  1  1  1  1  1  1  1  1  1  1  1  1  1  1  1 -1
  17   1  1  1  1  1  1  1  1  1  1  1  1  1  1  1  1  1  1  1  1  1  1  1  1  1  1  1  1  1  1  1  1  1  1  1  1  1  1  1 -1
  18   1  1  1  1  1  1  1  1  1  1  1  1  1  1  1  1  1  1  1  1  1  1  1  1  1  1  1  1  1  1  1  1  1  1  1  1  1  1  1 -1
  19   1  1  1  1  1  1  1  1  1  1  1  1  1  1  1  1  1  1  1  1  1  1  1  1  1  1  1  1  1  1  1  1  1  1  1  1  1  1  1 -1
  20   1  1  1  1  1  1  1  1  1  1  1  1  1  1  1  1  1  1  1  1  1  1  1  1  1  1  1  1  1  1  1  1  1  1  1  1  1  1  1 -1
  21   1  1  1  1  1  1  1  1  1  1  1  1  1  1  1  1  1  1  1  1  1  1  1  1  1  1  1  1  1  1  1  1  1  1  1  1  1  1  1 -1
  22   1  1  1  1  1  1  1  1  1  1  1  1  1  1  1  1  1  1  1  1  1  1  1  1  1  1  1  1  1  1  1  1  1  1  1  1  1  1  1 -1
  23   1  1  1  1  1  1  1  1  1  1  1  1  1  1  1  1  1  1  1  1  1  1  1  1  1  1  1  1  1  1  1  1  1  1  1  1  1  1  1 -1
  24   1  1  1  1  1  1  1  1  1  1  1  1  1  1  1  1  1  1  1  1  1  1  1  1  1  1  1  1  1  1  1  1  1  1  1  1  1  1  1 -1
  25   1  1  1  1  1  1  1  1  1  1  1  1  1  1  1  1  1  1  1  1  1  1  1  1  1  1  1  1  1  1  1  1  1  1  1  1  1  1  1 -1
  26   1  1  1  1  1  1  1  1  1  1  1  1  1  1  1  1  1  1  1  1  1  1  1  1  1  1  1  1  1  1  1  1  1  1  1  1  1  1  1 -1
  27   1  1  1  1  1  1  1  1  1  1  1  1  1  1  1  1  1  1  1  1  1  1  1  1  1  1  1  1  1  1  1  1  1  1  1  1  1  1  1 -1
  28   1  1  1  1  1  1  1  1  1  1  1  1  1  1  1  1  1  1  1  1  1  1  1  1  1  1  1  1  1  1  1  1  1  1  1  1  1  1  1 -1
  29   1  1  1  1  1  1  1  1  1  1  1  1  1  1  1  1  1  1  1  1  1  1  1  1  1  1  1  1  1  1  1  1  1  1  1  1  1  1  1 -1
  30   1  1  1  1  1  1  1  1  1  1  1  1  1  1  1  1  1  1  1  1  1  1  1  1  1  1  1  1  1  1  1  1  1  1  1  1  1  1  1 -1
  31   1  1  1  1  1  1  1  1  1  1  1  1  1  1  1  1  1  1  1  1  1  1  1  1  1  1  1  1  1  1  1  1  1  1  1  1  1  1  1 -1
  32   1  1  1  1  1  1  1  1  1  1  1  1  1  1  1  1  1  1  1  1  1  1  1  1  1  1  1  1  1  1  1  1  1  1  1  1  1  1  1 -1
  33   1  1  1  1  1  1  1  1  1  1  1  1  1  1  1  1  1  1  1  1  1  1  1  1  1  1  1  1  1  1  1  1  1  1  1  1  1  1  1 -1
  34   1  1  1  1  1  1  1  1  1  1  1  1  1  1  1  1  1  1  1  1  1  1  1  1  1  1  1  1  1  1  1  1  1  1  1  1  1  1  1 -1
  35   1  1  1  1  1  1  1  1  1  1  1  1  1  1  1  1  1  1  1  1  1  1  1  1  1  1  1  1  1  1  1  1  1  1  1  1  1  1  1 -1
  36   1  1  1  1  1  1  1  1  1  1  1  1  1  1  1  1  1  1  1  1  1  1  1  1  1  1  1  1  1  1  1  1  1  1  1  1  1  1  1 -1
  37   1  1  1  1  1  1  1  1  1  1  1  1  1  1  1  1  1  1  1  1  1  1  1  1  1  1  1  1  1  1  1  1  1  1  1  1  1  1  1 -1
  38   1  1  1  1  1  1  1  1  1  1  1  1  1  1  1  1  1  1  1  1  1  1  1  1  1  1  1  1  1  1  1  1  1  1  1  1  1  1  1 -1
  39   1  1  1  1  1  1  1  1  1  1  1  1  1  1  1  1  1  1  1  1  1  1  1  1  1  1  1  1  1  1  1  1  1  1  1  1  1  1  1 -1
  40  -1 -1 -1 -1 -1 -1 -1 -1 -1 -1 -1 -1 -1 -1 -1 -1 -1 -1 -1 -1 -1 -1 -1 -1 -1 -1 -1 -1 -1 -1 -1 -1 -1 -1 -1 -1 -1 -1 -1 -1



                     BOUNDARY ARRAY FOR LAYER  11
 READING ON UNIT    2 WITH FORMAT: (20I4)              

       1  2  3  4  5  6  7  8  9 10 11 12 13 14 15 16 17 18 19 20 21 22 23 24 25 26 27 28 29 30 31 32 33 34 35 36 37 38 39 40
 ............................................................................................................................
   1   1  1  1  1  1  1  1  1  1  1  1  1  1  1  1  1  1  1  1  1  1  1  1  1  1  1  1  1  1  1  1  1  1  1  1  1  1  1  1 -1
   2   1  1  1  1  1  1  1  1  1  1  1  1  1  1  1  1  1  1  1  1  1  1  1  1  1  1  1  1  1  1  1  1  1  1  1  1  1  1  1 -1
   3   1  1  1  1  1  1  1  1  1  1  1  1  1  1  1  1  1  1  1  1  1  1  1  1  1  1  1  1  1  1  1  1  1  1  1  1  1  1  1 -1
   4   1  1  1  1  1  1  1  1  1  1  1  1  1  1  1  1  1  1  1  1  1  1  1  1  1  1  1  1  1  1  1  1  1  1  1  1  1  1  1 -1
   5   1  1  1  1  1  1  1  1  1  1  1  1  1  1  1  1  1  1  1  1  1  1  1  1  1  1  1  1  1  1  1  1  1  1  1  1  1  1  1 -1
   6   1  1  1  1  1  1  1  1  1  1  1  1  1  1  1  1  1  1  1  1  1  1  1  1  1  1  1  1  1  1  1  1  1  1  1  1  1  1  1 -1
   7   1  1  1  1  1  1  1  1  1  1  1  1  1  1  1  1  1  1  1  1  1  1  1  1  1  1  1  1  1  1  1  1  1  1  1  1  1  1  1 -1
   8   1  1  1  1  1  1  1  1  1  1  1  1  1  1  1  1  1  1  1  1  1  1  1  1  1  1  1  1  1  1  1  1  1  1  1  1  1  1  1 -1
   9   1  1  1  1  1  1  1  1  1  1  1  1  1  1  1  1  1  1  1  1  1  1  1  1  1  1  1  1  1  1  1  1  1  1  1  1  1  1  1 -1
  10   1  1  1  1  1  1  1  1  1  1  1  1  1  1  1  1  1  1  1  1  1  1  1  1  1  1  1  1  1  1  1  1  1  1  1  1  1  1  1 -1
  11   1  1  1  1  1  1  1  1  1  1  1  1  1  1  1  1  1  1  1  1  1  1  1  1  1  1  1  1  1  1  1  1  1  1  1  1  1  1  1 -1
  12   1  1  1  1  1  1  1  1  1  1  1  1  1  1  1  1  1  1  1  1  1  1  1  1  1  1  1  1  1  1  1  1  1  1  1  1  1  1  1 -1
  13   1  1  1  1  1  1  1  1  1  1  1  1  1  1  1  1  1  1  1  1  1  1  1  1  1  1  1  1  1  1  1  1  1  1  1  1  1  1  1 -1
  14   1  1  1  1  1  1  1  1  1  1  1  1  1  1  1  1  1  1  1  1  1  1  1  1  1  1  1  1  1  1  1  1  1  1  1  1  1  1  1 -1
  15   1  1  1  1  1  1  1  1  1  1  1  1  1  1  1  1  1  1  1  1  1  1  1  1  1  1  1  1  1  1  1  1  1  1  1  1  1  1  1 -1
  16   1  1  1  1  1  1  1  1  1  1  1  1  1  1  1  1  1  1  1  1  1  1  1  1  1  1  1  1  1  1  1  1  1  1  1  1  1  1  1 -1
  17   1  1  1  1  1  1  1  1  1  1  1  1  1  1  1  1  1  1  1  1  1  1  1  1  1  1  1  1  1  1  1  1  1  1  1  1  1  1  1 -1
  18   1  1  1  1  1  1  1  1  1  1  1  1  1  1  1  1  1  1  1  1  1  1  1  1  1  1  1  1  1  1  1  1  1  1  1  1  1  1  1 -1
  19   1  1  1  1  1  1  1  1  1  1  1  1  1  1  1  1  1  1  1  1  1  1  1  1  1  1  1  1  1  1  1  1  1  1  1  1  1  1  1 -1
  20   1  1  1  1  1  1  1  1  1  1  1  1  1  1  1  1  1  1  1  1  1  1  1  1  1  1  1  1  1  1  1  1  1  1  1  1  1  1  1 -1
  21   1  1  1  1  1  1  1  1  1  1  1  1  1  1  1  1  1  1  1  1  1  1  1  1  1  1  1  1  1  1  1  1  1  1  1  1  1  1  1 -1
  22   1  1  1  1  1  1  1  1  1  1  1  1  1  1  1  1  1  1  1  1  1  1  1  1  1  1  1  1  1  1  1  1  1  1  1  1  1  1  1 -1
  23   1  1  1  1  1  1  1  1  1  1  1  1  1  1  1  1  1  1  1  1  1  1  1  1  1  1  1  1  1  1  1  1  1  1  1  1  1  1  1 -1
  24   1  1  1  1  1  1  1  1  1  1  1  1  1  1  1  1  1  1  1  1  1  1  1  1  1  1  1  1  1  1  1  1  1  1  1  1  1  1  1 -1
  25   1  1  1  1  1  1  1  1  1  1  1  1  1  1  1  1  1  1  1  1  1  1  1  1  1  1  1  1  1  1  1  1  1  1  1  1  1  1  1 -1
  26   1  1  1  1  1  1  1  1  1  1  1  1  1  1  1  1  1  1  1  1  1  1  1  1  1  1  1  1  1  1  1  1  1  1  1  1  1  1  1 -1
  27   1  1  1  1  1  1  1  1  1  1  1  1  1  1  1  1  1  1  1  1  1  1  1  1  1  1  1  1  1  1  1  1  1  1  1  1  1  1  1 -1
  28   1  1  1  1  1  1  1  1  1  1  1  1  1  1  1  1  1  1  1  1  1  1  1  1  1  1  1  1  1  1  1  1  1  1  1  1  1  1  1 -1
  29   1  1  1  1  1  1  1  1  1  1  1  1  1  1  1  1  1  1  1  1  1  1  1  1  1  1  1  1  1  1  1  1  1  1  1  1  1  1  1 -1
  30   1  1  1  1  1  1  1  1  1  1  1  1  1  1  1  1  1  1  1  1  1  1  1  1  1  1  1  1  1  1  1  1  1  1  1  1  1  1  1 -1
  31   1  1  1  1  1  1  1  1  1  1  1  1  1  1  1  1  1  1  1  1  1  1  1  1  1  1  1  1  1  1  1  1  1  1  1  1  1  1  1 -1
  32   1  1  1  1  1  1  1  1  1  1  1  1  1  1  1  1  1  1  1  1  1  1  1  1  1  1  1  1  1  1  1  1  1  1  1  1  1  1  1 -1
  33   1  1  1  1  1  1  1  1  1  1  1  1  1  1  1  1  1  1  1  1  1  1  1  1  1  1  1  1  1  1  1  1  1  1  1  1  1  1  1 -1
  34   1  1  1  1  1  1  1  1  1  1  1  1  1  1  1  1  1  1  1  1  1  1  1  1  1  1  1  1  1  1  1  1  1  1  1  1  1  1  1 -1
  35   1  1  1  1  1  1  1  1  1  1  1  1  1  1  1  1  1  1  1  1  1  1  1  1  1  1  1  1  1  1  1  1  1  1  1  1  1  1  1 -1
  36   1  1  1  1  1  1  1  1  1  1  1  1  1  1  1  1  1  1  1  1  1  1  1  1  1  1  1  1  1  1  1  1  1  1  1  1  1  1  1 -1
  37   1  1  1  1  1  1  1  1  1  1  1  1  1  1  1  1  1  1  1  1  1  1  1  1  1  1  1  1  1  1  1  1  1  1  1  1  1  1  1 -1
  38   1  1  1  1  1  1  1  1  1  1  1  1  1  1  1  1  1  1  1  1  1  1  1  1  1  1  1  1  1  1  1  1  1  1  1  1  1  1  1 -1
  39   1  1  1  1  1  1  1  1  1  1  1  1  1  1  1  1  1  1  1  1  1  1  1  1  1  1  1  1  1  1  1  1  1  1  1  1  1  1  1 -1
  40  -1 -1 -1 -1 -1 -1 -1 -1 -1 -1 -1 -1 -1 -1 -1 -1 -1 -1 -1 -1 -1 -1 -1 -1 -1 -1 -1 -1 -1 -1 -1 -1 -1 -1 -1 -1 -1 -1 -1 -1



                     BOUNDARY ARRAY FOR LAYER  12
 READING ON UNIT    2 WITH FORMAT: (20I4)              

       1  2  3  4  5  6  7  8  9 10 11 12 13 14 15 16 17 18 19 20 21 22 23 24 25 26 27 28 29 30 31 32 33 34 35 36 37 38 39 40
 ............................................................................................................................
   1   1  1  1  1  1  1  1  1  1  1  1  1  1  1  1  1  1  1  1  1  1  1  1  1  1  1  1  1  1  1  1  1  1  1  1  1  1  1  1 -1
   2   1  1  1  1  1  1  1  1  1  1  1  1  1  1  1  1  1  1  1  1  1  1  1  1  1  1  1  1  1  1  1  1  1  1  1  1  1  1  1 -1
   3   1  1  1  1  1  1  1  1  1  1  1  1  1  1  1  1  1  1  1  1  1  1  1  1  1  1  1  1  1  1  1  1  1  1  1  1  1  1  1 -1
   4   1  1  1  1  1  1  1  1  1  1  1  1  1  1  1  1  1  1  1  1  1  1  1  1  1  1  1  1  1  1  1  1  1  1  1  1  1  1  1 -1
   5   1  1  1  1  1  1  1  1  1  1  1  1  1  1  1  1  1  1  1  1  1  1  1  1  1  1  1  1  1  1  1  1  1  1  1  1  1  1  1 -1
   6   1  1  1  1  1  1  1  1  1  1  1  1  1  1  1  1  1  1  1  1  1  1  1  1  1  1  1  1  1  1  1  1  1  1  1  1  1  1  1 -1
   7   1  1  1  1  1  1  1  1  1  1  1  1  1  1  1  1  1  1  1  1  1  1  1  1  1  1  1  1  1  1  1  1  1  1  1  1  1  1  1 -1
   8   1  1  1  1  1  1  1  1  1  1  1  1  1  1  1  1  1  1  1  1  1  1  1  1  1  1  1  1  1  1  1  1  1  1  1  1  1  1  1 -1
   9   1  1  1  1  1  1  1  1  1  1  1  1  1  1  1  1  1  1  1  1  1  1  1  1  1  1  1  1  1  1  1  1  1  1  1  1  1  1  1 -1
  10   1  1  1  1  1  1  1  1  1  1  1  1  1  1  1  1  1  1  1  1  1  1  1  1  1  1  1  1  1  1  1  1  1  1  1  1  1  1  1 -1
  11   1  1  1  1  1  1  1  1  1  1  1  1  1  1  1  1  1  1  1  1  1  1  1  1  1  1  1  1  1  1  1  1  1  1  1  1  1  1  1 -1
  12   1  1  1  1  1  1  1  1  1  1  1  1  1  1  1  1  1  1  1  1  1  1  1  1  1  1  1  1  1  1  1  1  1  1  1  1  1  1  1 -1
  13   1  1  1  1  1  1  1  1  1  1  1  1  1  1  1  1  1  1  1  1  1  1  1  1  1  1  1  1  1  1  1  1  1  1  1  1  1  1  1 -1
  14   1  1  1  1  1  1  1  1  1  1  1  1  1  1  1  1  1  1  1  1  1  1  1  1  1  1  1  1  1  1  1  1  1  1  1  1  1  1  1 -1
  15   1  1  1  1  1  1  1  1  1  1  1  1  1  1  1  1  1  1  1  1  1  1  1  1  1  1  1  1  1  1  1  1  1  1  1  1  1  1  1 -1
  16   1  1  1  1  1  1  1  1  1  1  1  1  1  1  1  1  1  1  1  1  1  1  1  1  1  1  1  1  1  1  1  1  1  1  1  1  1  1  1 -1
  17   1  1  1  1  1  1  1  1  1  1  1  1  1  1  1  1  1  1  1  1  1  1  1  1  1  1  1  1  1  1  1  1  1  1  1  1  1  1  1 -1
  18   1  1  1  1  1  1  1  1  1  1  1  1  1  1  1  1  1  1  1  1  1  1  1  1  1  1  1  1  1  1  1  1  1  1  1  1  1  1  1 -1
  19   1  1  1  1  1  1  1  1  1  1  1  1  1  1  1  1  1  1  1  1  1  1  1  1  1  1  1  1  1  1  1  1  1  1  1  1  1  1  1 -1
  20   1  1  1  1  1  1  1  1  1  1  1  1  1  1  1  1  1  1  1  1  1  1  1  1  1  1  1  1  1  1  1  1  1  1  1  1  1  1  1 -1
  21   1  1  1  1  1  1  1  1  1  1  1  1  1  1  1  1  1  1  1  1  1  1  1  1  1  1  1  1  1  1  1  1  1  1  1  1  1  1  1 -1
  22   1  1  1  1  1  1  1  1  1  1  1  1  1  1  1  1  1  1  1  1  1  1  1  1  1  1  1  1  1  1  1  1  1  1  1  1  1  1  1 -1
  23   1  1  1  1  1  1  1  1  1  1  1  1  1  1  1  1  1  1  1  1  1  1  1  1  1  1  1  1  1  1  1  1  1  1  1  1  1  1  1 -1
  24   1  1  1  1  1  1  1  1  1  1  1  1  1  1  1  1  1  1  1  1  1  1  1  1  1  1  1  1  1  1  1  1  1  1  1  1  1  1  1 -1
  25   1  1  1  1  1  1  1  1  1  1  1  1  1  1  1  1  1  1  1  1  1  1  1  1  1  1  1  1  1  1  1  1  1  1  1  1  1  1  1 -1
  26   1  1  1  1  1  1  1  1  1  1  1  1  1  1  1  1  1  1  1  1  1  1  1  1  1  1  1  1  1  1  1  1  1  1  1  1  1  1  1 -1
  27   1  1  1  1  1  1  1  1  1  1  1  1  1  1  1  1  1  1  1  1  1  1  1  1  1  1  1  1  1  1  1  1  1  1  1  1  1  1  1 -1
  28   1  1  1  1  1  1  1  1  1  1  1  1  1  1  1  1  1  1  1  1  1  1  1  1  1  1  1  1  1  1  1  1  1  1  1  1  1  1  1 -1
  29   1  1  1  1  1  1  1  1  1  1  1  1  1  1  1  1  1  1  1  1  1  1  1  1  1  1  1  1  1  1  1  1  1  1  1  1  1  1  1 -1
  30   1  1  1  1  1  1  1  1  1  1  1  1  1  1  1  1  1  1  1  1  1  1  1  1  1  1  1  1  1  1  1  1  1  1  1  1  1  1  1 -1
  31   1  1  1  1  1  1  1  1  1  1  1  1  1  1  1  1  1  1  1  1  1  1  1  1  1  1  1  1  1  1  1  1  1  1  1  1  1  1  1 -1
  32   1  1  1  1  1  1  1  1  1  1  1  1  1  1  1  1  1  1  1  1  1  1  1  1  1  1  1  1  1  1  1  1  1  1  1  1  1  1  1 -1
  33   1  1  1  1  1  1  1  1  1  1  1  1  1  1  1  1  1  1  1  1  1  1  1  1  1  1  1  1  1  1  1  1  1  1  1  1  1  1  1 -1
  34   1  1  1  1  1  1  1  1  1  1  1  1  1  1  1  1  1  1  1  1  1  1  1  1  1  1  1  1  1  1  1  1  1  1  1  1  1  1  1 -1
  35   1  1  1  1  1  1  1  1  1  1  1  1  1  1  1  1  1  1  1  1  1  1  1  1  1  1  1  1  1  1  1  1  1  1  1  1  1  1  1 -1
  36   1  1  1  1  1  1  1  1  1  1  1  1  1  1  1  1  1  1  1  1  1  1  1  1  1  1  1  1  1  1  1  1  1  1  1  1  1  1  1 -1
  37   1  1  1  1  1  1  1  1  1  1  1  1  1  1  1  1  1  1  1  1  1  1  1  1  1  1  1  1  1  1  1  1  1  1  1  1  1  1  1 -1
  38   1  1  1  1  1  1  1  1  1  1  1  1  1  1  1  1  1  1  1  1  1  1  1  1  1  1  1  1  1  1  1  1  1  1  1  1  1  1  1 -1
  39   1  1  1  1  1  1  1  1  1  1  1  1  1  1  1  1  1  1  1  1  1  1  1  1  1  1  1  1  1  1  1  1  1  1  1  1  1  1  1 -1
  40  -1 -1 -1 -1 -1 -1 -1 -1 -1 -1 -1 -1 -1 -1 -1 -1 -1 -1 -1 -1 -1 -1 -1 -1 -1 -1 -1 -1 -1 -1 -1 -1 -1 -1 -1 -1 -1 -1 -1 -1



                     BOUNDARY ARRAY FOR LAYER  13
 READING ON UNIT    2 WITH FORMAT: (20I4)              

       1  2  3  4  5  6  7  8  9 10 11 12 13 14 15 16 17 18 19 20 21 22 23 24 25 26 27 28 29 30 31 32 33 34 35 36 37 38 39 40
 ............................................................................................................................
   1   1  1  1  1  1  1  1  1  1  1  1  1  1  1  1  1  1  1  1  1  1  1  1  1  1  1  1  1  1  1  1  1  1  1  1  1  1  1  1 -1
   2   1  1  1  1  1  1  1  1  1  1  1  1  1  1  1  1  1  1  1  1  1  1  1  1  1  1  1  1  1  1  1  1  1  1  1  1  1  1  1 -1
   3   1  1  1  1  1  1  1  1  1  1  1  1  1  1  1  1  1  1  1  1  1  1  1  1  1  1  1  1  1  1  1  1  1  1  1  1  1  1  1 -1
   4   1  1  1  1  1  1  1  1  1  1  1  1  1  1  1  1  1  1  1  1  1  1  1  1  1  1  1  1  1  1  1  1  1  1  1  1  1  1  1 -1
   5   1  1  1  1  1  1  1  1  1  1  1  1  1  1  1  1  1  1  1  1  1  1  1  1  1  1  1  1  1  1  1  1  1  1  1  1  1  1  1 -1
   6   1  1  1  1  1  1  1  1  1  1  1  1  1  1  1  1  1  1  1  1  1  1  1  1  1  1  1  1  1  1  1  1  1  1  1  1  1  1  1 -1
   7   1  1  1  1  1  1  1  1  1  1  1  1  1  1  1  1  1  1  1  1  1  1  1  1  1  1  1  1  1  1  1  1  1  1  1  1  1  1  1 -1
   8   1  1  1  1  1  1  1  1  1  1  1  1  1  1  1  1  1  1  1  1  1  1  1  1  1  1  1  1  1  1  1  1  1  1  1  1  1  1  1 -1
   9   1  1  1  1  1  1  1  1  1  1  1  1  1  1  1  1  1  1  1  1  1  1  1  1  1  1  1  1  1  1  1  1  1  1  1  1  1  1  1 -1
  10   1  1  1  1  1  1  1  1  1  1  1  1  1  1  1  1  1  1  1  1  1  1  1  1  1  1  1  1  1  1  1  1  1  1  1  1  1  1  1 -1
  11   1  1  1  1  1  1  1  1  1  1  1  1  1  1  1  1  1  1  1  1  1  1  1  1  1  1  1  1  1  1  1  1  1  1  1  1  1  1  1 -1
  12   1  1  1  1  1  1  1  1  1  1  1  1  1  1  1  1  1  1  1  1  1  1  1  1  1  1  1  1  1  1  1  1  1  1  1  1  1  1  1 -1
  13   1  1  1  1  1  1  1  1  1  1  1  1  1  1  1  1  1  1  1  1  1  1  1  1  1  1  1  1  1  1  1  1  1  1  1  1  1  1  1 -1
  14   1  1  1  1  1  1  1  1  1  1  1  1  1  1  1  1  1  1  1  1  1  1  1  1  1  1  1  1  1  1  1  1  1  1  1  1  1  1  1 -1
  15   1  1  1  1  1  1  1  1  1  1  1  1  1  1  1  1  1  1  1  1  1  1  1  1  1  1  1  1  1  1  1  1  1  1  1  1  1  1  1 -1
  16   1  1  1  1  1  1  1  1  1  1  1  1  1  1  1  1  1  1  1  1  1  1  1  1  1  1  1  1  1  1  1  1  1  1  1  1  1  1  1 -1
  17   1  1  1  1  1  1  1  1  1  1  1  1  1  1  1  1  1  1  1  1  1  1  1  1  1  1  1  1  1  1  1  1  1  1  1  1  1  1  1 -1
  18   1  1  1  1  1  1  1  1  1  1  1  1  1  1  1  1  1  1  1  1  1  1  1  1  1  1  1  1  1  1  1  1  1  1  1  1  1  1  1 -1
  19   1  1  1  1  1  1  1  1  1  1  1  1  1  1  1  1  1  1  1  1  1  1  1  1  1  1  1  1  1  1  1  1  1  1  1  1  1  1  1 -1
  20   1  1  1  1  1  1  1  1  1  1  1  1  1  1  1  1  1  1  1  1  1  1  1  1  1  1  1  1  1  1  1  1  1  1  1  1  1  1  1 -1
  21   1  1  1  1  1  1  1  1  1  1  1  1  1  1  1  1  1  1  1  1  1  1  1  1  1  1  1  1  1  1  1  1  1  1  1  1  1  1  1 -1
  22   1  1  1  1  1  1  1  1  1  1  1  1  1  1  1  1  1  1  1  1  1  1  1  1  1  1  1  1  1  1  1  1  1  1  1  1  1  1  1 -1
  23   1  1  1  1  1  1  1  1  1  1  1  1  1  1  1  1  1  1  1  1  1  1  1  1  1  1  1  1  1  1  1  1  1  1  1  1  1  1  1 -1
  24   1  1  1  1  1  1  1  1  1  1  1  1  1  1  1  1  1  1  1  1  1  1  1  1  1  1  1  1  1  1  1  1  1  1  1  1  1  1  1 -1
  25   1  1  1  1  1  1  1  1  1  1  1  1  1  1  1  1  1  1  1  1  1  1  1  1  1  1  1  1  1  1  1  1  1  1  1  1  1  1  1 -1
  26   1  1  1  1  1  1  1  1  1  1  1  1  1  1  1  1  1  1  1  1  1  1  1  1  1  1  1  1  1  1  1  1  1  1  1  1  1  1  1 -1
  27   1  1  1  1  1  1  1  1  1  1  1  1  1  1  1  1  1  1  1  1  1  1  1  1  1  1  1  1  1  1  1  1  1  1  1  1  1  1  1 -1
  28   1  1  1  1  1  1  1  1  1  1  1  1  1  1  1  1  1  1  1  1  1  1  1  1  1  1  1  1  1  1  1  1  1  1  1  1  1  1  1 -1
  29   1  1  1  1  1  1  1  1  1  1  1  1  1  1  1  1  1  1  1  1  1  1  1  1  1  1  1  1  1  1  1  1  1  1  1  1  1  1  1 -1
  30   1  1  1  1  1  1  1  1  1  1  1  1  1  1  1  1  1  1  1  1  1  1  1  1  1  1  1  1  1  1  1  1  1  1  1  1  1  1  1 -1
  31   1  1  1  1  1  1  1  1  1  1  1  1  1  1  1  1  1  1  1  1  1  1  1  1  1  1  1  1  1  1  1  1  1  1  1  1  1  1  1 -1
  32   1  1  1  1  1  1  1  1  1  1  1  1  1  1  1  1  1  1  1  1  1  1  1  1  1  1  1  1  1  1  1  1  1  1  1  1  1  1  1 -1
  33   1  1  1  1  1  1  1  1  1  1  1  1  1  1  1  1  1  1  1  1  1  1  1  1  1  1  1  1  1  1  1  1  1  1  1  1  1  1  1 -1
  34   1  1  1  1  1  1  1  1  1  1  1  1  1  1  1  1  1  1  1  1  1  1  1  1  1  1  1  1  1  1  1  1  1  1  1  1  1  1  1 -1
  35   1  1  1  1  1  1  1  1  1  1  1  1  1  1  1  1  1  1  1  1  1  1  1  1  1  1  1  1  1  1  1  1  1  1  1  1  1  1  1 -1
  36   1  1  1  1  1  1  1  1  1  1  1  1  1  1  1  1  1  1  1  1  1  1  1  1  1  1  1  1  1  1  1  1  1  1  1  1  1  1  1 -1
  37   1  1  1  1  1  1  1  1  1  1  1  1  1  1  1  1  1  1  1  1  1  1  1  1  1  1  1  1  1  1  1  1  1  1  1  1  1  1  1 -1
  38   1  1  1  1  1  1  1  1  1  1  1  1  1  1  1  1  1  1  1  1  1  1  1  1  1  1  1  1  1  1  1  1  1  1  1  1  1  1  1 -1
  39   1  1  1  1  1  1  1  1  1  1  1  1  1  1  1  1  1  1  1  1  1  1  1  1  1  1  1  1  1  1  1  1  1  1  1  1  1  1  1 -1
  40  -1 -1 -1 -1 -1 -1 -1 -1 -1 -1 -1 -1 -1 -1 -1 -1 -1 -1 -1 -1 -1 -1 -1 -1 -1 -1 -1 -1 -1 -1 -1 -1 -1 -1 -1 -1 -1 -1 -1 -1



                     BOUNDARY ARRAY FOR LAYER  14
 READING ON UNIT    2 WITH FORMAT: (20I4)              

       1  2  3  4  5  6  7  8  9 10 11 12 13 14 15 16 17 18 19 20 21 22 23 24 25 26 27 28 29 30 31 32 33 34 35 36 37 38 39 40
 ............................................................................................................................
   1   1  1  1  1  1  1  1  1  1  1  1  1  1  1  1  1  1  1  1  1  1  1  1  1  1  1  1  1  1  1  1  1  1  1  1  1  1  1  1 -1
   2   1  1  1  1  1  1  1  1  1  1  1  1  1  1  1  1  1  1  1  1  1  1  1  1  1  1  1  1  1  1  1  1  1  1  1  1  1  1  1 -1
   3   1  1  1  1  1  1  1  1  1  1  1  1  1  1  1  1  1  1  1  1  1  1  1  1  1  1  1  1  1  1  1  1  1  1  1  1  1  1  1 -1
   4   1  1  1  1  1  1  1  1  1  1  1  1  1  1  1  1  1  1  1  1  1  1  1  1  1  1  1  1  1  1  1  1  1  1  1  1  1  1  1 -1
   5   1  1  1  1  1  1  1  1  1  1  1  1  1  1  1  1  1  1  1  1  1  1  1  1  1  1  1  1  1  1  1  1  1  1  1  1  1  1  1 -1
   6   1  1  1  1  1  1  1  1  1  1  1  1  1  1  1  1  1  1  1  1  1  1  1  1  1  1  1  1  1  1  1  1  1  1  1  1  1  1  1 -1
   7   1  1  1  1  1  1  1  1  1  1  1  1  1  1  1  1  1  1  1  1  1  1  1  1  1  1  1  1  1  1  1  1  1  1  1  1  1  1  1 -1
   8   1  1  1  1  1  1  1  1  1  1  1  1  1  1  1  1  1  1  1  1  1  1  1  1  1  1  1  1  1  1  1  1  1  1  1  1  1  1  1 -1
   9   1  1  1  1  1  1  1  1  1  1  1  1  1  1  1  1  1  1  1  1  1  1  1  1  1  1  1  1  1  1  1  1  1  1  1  1  1  1  1 -1
  10   1  1  1  1  1  1  1  1  1  1  1  1  1  1  1  1  1  1  1  1  1  1  1  1  1  1  1  1  1  1  1  1  1  1  1  1  1  1  1 -1
  11   1  1  1  1  1  1  1  1  1  1  1  1  1  1  1  1  1  1  1  1  1  1  1  1  1  1  1  1  1  1  1  1  1  1  1  1  1  1  1 -1
  12   1  1  1  1  1  1  1  1  1  1  1  1  1  1  1  1  1  1  1  1  1  1  1  1  1  1  1  1  1  1  1  1  1  1  1  1  1  1  1 -1
  13   1  1  1  1  1  1  1  1  1  1  1  1  1  1  1  1  1  1  1  1  1  1  1  1  1  1  1  1  1  1  1  1  1  1  1  1  1  1  1 -1
  14   1  1  1  1  1  1  1  1  1  1  1  1  1  1  1  1  1  1  1  1  1  1  1  1  1  1  1  1  1  1  1  1  1  1  1  1  1  1  1 -1
  15   1  1  1  1  1  1  1  1  1  1  1  1  1  1  1  1  1  1  1  1  1  1  1  1  1  1  1  1  1  1  1  1  1  1  1  1  1  1  1 -1
  16   1  1  1  1  1  1  1  1  1  1  1  1  1  1  1  1  1  1  1  1  1  1  1  1  1  1  1  1  1  1  1  1  1  1  1  1  1  1  1 -1
  17   1  1  1  1  1  1  1  1  1  1  1  1  1  1  1  1  1  1  1  1  1  1  1  1  1  1  1  1  1  1  1  1  1  1  1  1  1  1  1 -1
  18   1  1  1  1  1  1  1  1  1  1  1  1  1  1  1  1  1  1  1  1  1  1  1  1  1  1  1  1  1  1  1  1  1  1  1  1  1  1  1 -1
  19   1  1  1  1  1  1  1  1  1  1  1  1  1  1  1  1  1  1  1  1  1  1  1  1  1  1  1  1  1  1  1  1  1  1  1  1  1  1  1 -1
  20   1  1  1  1  1  1  1  1  1  1  1  1  1  1  1  1  1  1  1  1  1  1  1  1  1  1  1  1  1  1  1  1  1  1  1  1  1  1  1 -1
  21   1  1  1  1  1  1  1  1  1  1  1  1  1  1  1  1  1  1  1  1  1  1  1  1  1  1  1  1  1  1  1  1  1  1  1  1  1  1  1 -1
  22   1  1  1  1  1  1  1  1  1  1  1  1  1  1  1  1  1  1  1  1  1  1  1  1  1  1  1  1  1  1  1  1  1  1  1  1  1  1  1 -1
  23   1  1  1  1  1  1  1  1  1  1  1  1  1  1  1  1  1  1  1  1  1  1  1  1  1  1  1  1  1  1  1  1  1  1  1  1  1  1  1 -1
  24   1  1  1  1  1  1  1  1  1  1  1  1  1  1  1  1  1  1  1  1  1  1  1  1  1  1  1  1  1  1  1  1  1  1  1  1  1  1  1 -1
  25   1  1  1  1  1  1  1  1  1  1  1  1  1  1  1  1  1  1  1  1  1  1  1  1  1  1  1  1  1  1  1  1  1  1  1  1  1  1  1 -1
  26   1  1  1  1  1  1  1  1  1  1  1  1  1  1  1  1  1  1  1  1  1  1  1  1  1  1  1  1  1  1  1  1  1  1  1  1  1  1  1 -1
  27   1  1  1  1  1  1  1  1  1  1  1  1  1  1  1  1  1  1  1  1  1  1  1  1  1  1  1  1  1  1  1  1  1  1  1  1  1  1  1 -1
  28   1  1  1  1  1  1  1  1  1  1  1  1  1  1  1  1  1  1  1  1  1  1  1  1  1  1  1  1  1  1  1  1  1  1  1  1  1  1  1 -1
  29   1  1  1  1  1  1  1  1  1  1  1  1  1  1  1  1  1  1  1  1  1  1  1  1  1  1  1  1  1  1  1  1  1  1  1  1  1  1  1 -1
  30   1  1  1  1  1  1  1  1  1  1  1  1  1  1  1  1  1  1  1  1  1  1  1  1  1  1  1  1  1  1  1  1  1  1  1  1  1  1  1 -1
  31   1  1  1  1  1  1  1  1  1  1  1  1  1  1  1  1  1  1  1  1  1  1  1  1  1  1  1  1  1  1  1  1  1  1  1  1  1  1  1 -1
  32   1  1  1  1  1  1  1  1  1  1  1  1  1  1  1  1  1  1  1  1  1  1  1  1  1  1  1  1  1  1  1  1  1  1  1  1  1  1  1 -1
  33   1  1  1  1  1  1  1  1  1  1  1  1  1  1  1  1  1  1  1  1  1  1  1  1  1  1  1  1  1  1  1  1  1  1  1  1  1  1  1 -1
  34   1  1  1  1  1  1  1  1  1  1  1  1  1  1  1  1  1  1  1  1  1  1  1  1  1  1  1  1  1  1  1  1  1  1  1  1  1  1  1 -1
  35   1  1  1  1  1  1  1  1  1  1  1  1  1  1  1  1  1  1  1  1  1  1  1  1  1  1  1  1  1  1  1  1  1  1  1  1  1  1  1 -1
  36   1  1  1  1  1  1  1  1  1  1  1  1  1  1  1  1  1  1  1  1  1  1  1  1  1  1  1  1  1  1  1  1  1  1  1  1  1  1  1 -1
  37   1  1  1  1  1  1  1  1  1  1  1  1  1  1  1  1  1  1  1  1  1  1  1  1  1  1  1  1  1  1  1  1  1  1  1  1  1  1  1 -1
  38   1  1  1  1  1  1  1  1  1  1  1  1  1  1  1  1  1  1  1  1  1  1  1  1  1  1  1  1  1  1  1  1  1  1  1  1  1  1  1 -1
  39   1  1  1  1  1  1  1  1  1  1  1  1  1  1  1  1  1  1  1  1  1  1  1  1  1  1  1  1  1  1  1  1  1  1  1  1  1  1  1 -1
  40  -1 -1 -1 -1 -1 -1 -1 -1 -1 -1 -1 -1 -1 -1 -1 -1 -1 -1 -1 -1 -1 -1 -1 -1 -1 -1 -1 -1 -1 -1 -1 -1 -1 -1 -1 -1 -1 -1 -1 -1

 AQUIFER HEAD WILL BE SET TO  -99.900     AT ALL NO-FLOW NODES (IBOUND=0).

             INITIAL HEAD =   25.0000     FOR LAYER   1

             INITIAL HEAD =   25.0000     FOR LAYER   2

             INITIAL HEAD =   25.0000     FOR LAYER   3

             INITIAL HEAD =   25.0000     FOR LAYER   4

             INITIAL HEAD =   25.0000     FOR LAYER   5

             INITIAL HEAD =   25.0000     FOR LAYER   6

             INITIAL HEAD =   25.0000     FOR LAYER   7

             INITIAL HEAD =   25.0000     FOR LAYER   8

             INITIAL HEAD =   25.0000     FOR LAYER   9

             INITIAL HEAD =   25.0000     FOR LAYER  10

             INITIAL HEAD =   25.0000     FOR LAYER  11

             INITIAL HEAD =   25.0000     FOR LAYER  12

             INITIAL HEAD =   25.0000     FOR LAYER  13

             INITIAL HEAD =   25.0000     FOR LAYER  14

 OUTPUT CONTROL IS SPECIFIED ONLY AT TIME STEPS FOR WHICH OUTPUT IS DESIRED
 COMPACT CELL-BY-CELL BUDGET FILES WILL BE WRITTEN
 IBOUND WILL BE SAVED WITH FORMAT: (40I2)              
 HEAD PRINT FORMAT CODE IS  12    DRAWDOWN PRINT FORMAT CODE IS   9
 HEADS WILL BE SAVED ON UNIT   30    DRAWDOWNS WILL BE SAVED ON UNIT    0

 LPF -- LAYER-PROPERTY FLOW PACKAGE, VERSION 7, 5/2/2005
         INPUT READ FROM UNIT   34
 CELL-BY-CELL FLOWS WILL BE SAVED ON UNIT   32
 HEAD AT CELLS THAT CONVERT TO DRY=  -99.900    
 No named parameters
 CONSTANTCV OPTION:
 Constant vertical conductance for convertible layers

   LAYER FLAGS:
 LAYER       LAYTYP        LAYAVG         CHANI        LAYVKA        LAYWET
 ---------------------------------------------------------------------------
    1             1             0     1.000E+00             0            -1
    2             1             0     1.000E+00             0            -1
    3             1             0     1.000E+00             0            -1
    4             1             0     1.000E+00             0            -1
    5             1             0     1.000E+00             0            -1
    6             1             0     1.000E+00             0            -1
    7             1             0     1.000E+00             0            -1
    8             1             0     1.000E+00             0            -1
    9             1             0     1.000E+00             0            -1
   10             0             0     1.000E+00             0             0
   11             0             0     1.000E+00             0             0
   12             0             0     1.000E+00             0             0
   13             0             0     1.000E+00             0             0
   14             0             0     1.000E+00             0             0

   INTERPRETATION OF LAYER FLAGS:
                        INTERBLOCK     HORIZONTAL    DATA IN
         LAYER TYPE   TRANSMISSIVITY   ANISOTROPY   ARRAY VKA   WETTABILITY
 LAYER      (LAYTYP)      (LAYAVG)       (CHANI)      (LAYVKA)      (LAYWET)
 ---------------------------------------------------------------------------
    1   CONVERTIBLE      HARMONIC     1.000E+00    VERTICAL K      WETTABLE
    2   CONVERTIBLE      HARMONIC     1.000E+00    VERTICAL K      WETTABLE
    3   CONVERTIBLE      HARMONIC     1.000E+00    VERTICAL K      WETTABLE
    4   CONVERTIBLE      HARMONIC     1.000E+00    VERTICAL K      WETTABLE
    5   CONVERTIBLE      HARMONIC     1.000E+00    VERTICAL K      WETTABLE
    6   CONVERTIBLE      HARMONIC     1.000E+00    VERTICAL K      WETTABLE
    7   CONVERTIBLE      HARMONIC     1.000E+00    VERTICAL K      WETTABLE
    8   CONVERTIBLE      HARMONIC     1.000E+00    VERTICAL K      WETTABLE
    9   CONVERTIBLE      HARMONIC     1.000E+00    VERTICAL K      WETTABLE
   10      CONFINED      HARMONIC     1.000E+00    VERTICAL K  NON-WETTABLE
   11      CONFINED      HARMONIC     1.000E+00    VERTICAL K  NON-WETTABLE
   12      CONFINED      HARMONIC     1.000E+00    VERTICAL K  NON-WETTABLE
   13      CONFINED      HARMONIC     1.000E+00    VERTICAL K  NON-WETTABLE
   14      CONFINED      HARMONIC     1.000E+00    VERTICAL K  NON-WETTABLE

 WETTING CAPABILITY IS ACTIVE IN   9 LAYERS
  WETTING FACTOR=  0.5000000    
  WETTING ITERATION INTERVAL=           1
  IHDWET=           1

    HYD. COND. ALONG ROWS =   5.00000     FOR LAYER   1

      VERTICAL HYD. COND. =  0.250000     FOR LAYER   1

         SPECIFIC STORAGE =  2.000000E-04 FOR LAYER   1

           SPECIFIC YIELD =  0.200000     FOR LAYER   1

         WETDRY PARAMETER = -0.500000     FOR LAYER   1

    HYD. COND. ALONG ROWS =   5.00000     FOR LAYER   2

      VERTICAL HYD. COND. =  0.250000     FOR LAYER   2

         SPECIFIC STORAGE =  2.000000E-04 FOR LAYER   2

           SPECIFIC YIELD =  0.200000     FOR LAYER   2

         WETDRY PARAMETER = -0.500000     FOR LAYER   2

    HYD. COND. ALONG ROWS =   5.00000     FOR LAYER   3

      VERTICAL HYD. COND. =  0.250000     FOR LAYER   3

         SPECIFIC STORAGE =  2.000000E-04 FOR LAYER   3

           SPECIFIC YIELD =  0.200000     FOR LAYER   3

         WETDRY PARAMETER = -0.500000     FOR LAYER   3

    HYD. COND. ALONG ROWS =   5.00000     FOR LAYER   4

      VERTICAL HYD. COND. =  0.250000     FOR LAYER   4

         SPECIFIC STORAGE =  2.000000E-04 FOR LAYER   4

           SPECIFIC YIELD =  0.200000     FOR LAYER   4

         WETDRY PARAMETER = -0.500000     FOR LAYER   4

    HYD. COND. ALONG ROWS =   5.00000     FOR LAYER   5

      VERTICAL HYD. COND. =  0.250000     FOR LAYER   5

         SPECIFIC STORAGE =  2.000000E-04 FOR LAYER   5

           SPECIFIC YIELD =  0.200000     FOR LAYER   5

         WETDRY PARAMETER = -0.500000     FOR LAYER   5

    HYD. COND. ALONG ROWS =   5.00000     FOR LAYER   6

      VERTICAL HYD. COND. =  0.250000     FOR LAYER   6

         SPECIFIC STORAGE =  2.000000E-04 FOR LAYER   6

           SPECIFIC YIELD =  0.200000     FOR LAYER   6

         WETDRY PARAMETER = -0.500000     FOR LAYER   6

    HYD. COND. ALONG ROWS =   5.00000     FOR LAYER   7

      VERTICAL HYD. COND. =  0.250000     FOR LAYER   7

         SPECIFIC STORAGE =  2.000000E-04 FOR LAYER   7

           SPECIFIC YIELD =  0.200000     FOR LAYER   7

         WETDRY PARAMETER = -0.500000     FOR LAYER   7

    HYD. COND. ALONG ROWS =   5.00000     FOR LAYER   8

      VERTICAL HYD. COND. =  0.250000     FOR LAYER   8

         SPECIFIC STORAGE =  2.000000E-04 FOR LAYER   8

           SPECIFIC YIELD =  0.200000     FOR LAYER   8

         WETDRY PARAMETER = -0.500000     FOR LAYER   8

    HYD. COND. ALONG ROWS =   5.00000     FOR LAYER   9

      VERTICAL HYD. COND. =  0.250000     FOR LAYER   9

         SPECIFIC STORAGE =  2.000000E-04 FOR LAYER   9

           SPECIFIC YIELD =  0.200000     FOR LAYER   9

         WETDRY PARAMETER = -0.500000     FOR LAYER   9

    HYD. COND. ALONG ROWS =   5.00000     FOR LAYER  10

      VERTICAL HYD. COND. =  0.250000     FOR LAYER  10

         SPECIFIC STORAGE =  2.000000E-04 FOR LAYER  10

    HYD. COND. ALONG ROWS =   5.00000     FOR LAYER  11

      VERTICAL HYD. COND. =  0.250000     FOR LAYER  11

         SPECIFIC STORAGE =  2.000000E-04 FOR LAYER  11

    HYD. COND. ALONG ROWS =   5.00000     FOR LAYER  12

      VERTICAL HYD. COND. =  0.250000     FOR LAYER  12

         SPECIFIC STORAGE =  2.000000E-04 FOR LAYER  12

    HYD. COND. ALONG ROWS =   5.00000     FOR LAYER  13

      VERTICAL HYD. COND. =  0.250000     FOR LAYER  13

         SPECIFIC STORAGE =  2.000000E-04 FOR LAYER  13

    HYD. COND. ALONG ROWS =   5.00000     FOR LAYER  14

      VERTICAL HYD. COND. =  0.250000     FOR LAYER  14

         SPECIFIC STORAGE =  2.000000E-04 FOR LAYER  14

 RCH -- RECHARGE PACKAGE, VERSION 7, 5/2/2005 INPUT READ FROM UNIT   18
 No named parameters
 OPTION 3 -- RECHARGE TO HIGHEST ACTIVE NODE IN EACH VERTICAL COLUMN
 CELL-BY-CELL FLOWS WILL BE SAVED ON UNIT   32


     0 Recharge parameters

 PCG -- CONJUGATE-GRADIENT SOLUTION PACKAGE, VERSION 7, 5/2/2005
 MAXIMUM OF     40 CALLS OF SOLUTION ROUTINE
 MAXIMUM OF     20 INTERNAL ITERATIONS PER CALL TO SOLUTION ROUTINE
 MATRIX PRECONDITIONING TYPE :    1



                                    SOLUTION BY THE CONJUGATE-GRADIENT METHOD
                                   -------------------------------------------
                    MAXIMUM NUMBER OF CALLS TO PCG ROUTINE =       40
                        MAXIMUM ITERATIONS PER CALL TO PCG =       20
                               MATRIX PRECONDITIONING TYPE =        1
        RELAXATION FACTOR (ONLY USED WITH PRECOND. TYPE 1) =    0.10000E+01
 PARAMETER OF POLYNOMIAL PRECOND. = 2 (2) OR IS CALCULATED :        2
                         HEAD CHANGE CRITERION FOR CLOSURE =    0.10000E-03
                     RESIDUAL CHANGE CRITERION FOR CLOSURE =    0.10000E+04
            PCG HEAD AND RESIDUAL CHANGE PRINTOUT INTERVAL =        1
     PRINTING FROM SOLVER IS LIMITED(1) OR SUPPRESSED (>1) =        0
                            STEADY-STATE DAMPING PARAMETER =    0.10000E+01
                               TRANSIENT DAMPING PARAMETER =    0.10000E+01
1
                            STRESS PERIOD NO.    1, LENGTH =   190.0000    
                            -----------------------------------------------

                              NUMBER OF TIME STEPS =    10

                               MULTIPLIER FOR DELT =     1.000

                            INITIAL TIME STEP SIZE =   19.00000    



                           RECHARGE
 READING ON UNIT   18 WITH FORMAT: (10F10.0)           

         1     2     3     4     5     6     7     8     9    10    11    12    13    14    15    16    17    18    19    20
        21    22    23    24    25    26    27    28    29    30    31    32    33    34    35    36    37    38    39    40
 ...........................................................................................................................
   1   0.05  0.05  0.00  0.00  0.00  0.00  0.00  0.00  0.00  0.00  0.00  0.00  0.00  0.00  0.00  0.00  0.00  0.00  0.00  0.00
       0.00  0.00  0.00  0.00  0.00  0.00  0.00  0.00  0.00  0.00  0.00  0.00  0.00  0.00  0.00  0.00  0.00  0.00  0.00  0.00
   2   0.05  0.05  0.00  0.00  0.00  0.00  0.00  0.00  0.00  0.00  0.00  0.00  0.00  0.00  0.00  0.00  0.00  0.00  0.00  0.00
       0.00  0.00  0.00  0.00  0.00  0.00  0.00  0.00  0.00  0.00  0.00  0.00  0.00  0.00  0.00  0.00  0.00  0.00  0.00  0.00
   3   0.00  0.00  0.00  0.00  0.00  0.00  0.00  0.00  0.00  0.00  0.00  0.00  0.00  0.00  0.00  0.00  0.00  0.00  0.00  0.00
       0.00  0.00  0.00  0.00  0.00  0.00  0.00  0.00  0.00  0.00  0.00  0.00  0.00  0.00  0.00  0.00  0.00  0.00  0.00  0.00
   4   0.00  0.00  0.00  0.00  0.00  0.00  0.00  0.00  0.00  0.00  0.00  0.00  0.00  0.00  0.00  0.00  0.00  0.00  0.00  0.00
       0.00  0.00  0.00  0.00  0.00  0.00  0.00  0.00  0.00  0.00  0.00  0.00  0.00  0.00  0.00  0.00  0.00  0.00  0.00  0.00
   5   0.00  0.00  0.00  0.00  0.00  0.00  0.00  0.00  0.00  0.00  0.00  0.00  0.00  0.00  0.00  0.00  0.00  0.00  0.00  0.00
       0.00  0.00  0.00  0.00  0.00  0.00  0.00  0.00  0.00  0.00  0.00  0.00  0.00  0.00  0.00  0.00  0.00  0.00  0.00  0.00
   6   0.00  0.00  0.00  0.00  0.00  0.00  0.00  0.00  0.00  0.00  0.00  0.00  0.00  0.00  0.00  0.00  0.00  0.00  0.00  0.00
       0.00  0.00  0.00  0.00  0.00  0.00  0.00  0.00  0.00  0.00  0.00  0.00  0.00  0.00  0.00  0.00  0.00  0.00  0.00  0.00
   7   0.00  0.00  0.00  0.00  0.00  0.00  0.00  0.00  0.00  0.00  0.00  0.00  0.00  0.00  0.00  0.00  0.00  0.00  0.00  0.00
       0.00  0.00  0.00  0.00  0.00  0.00  0.00  0.00  0.00  0.00  0.00  0.00  0.00  0.00  0.00  0.00  0.00  0.00  0.00  0.00
   8   0.00  0.00  0.00  0.00  0.00  0.00  0.00  0.00  0.00  0.00  0.00  0.00  0.00  0.00  0.00  0.00  0.00  0.00  0.00  0.00
       0.00  0.00  0.00  0.00  0.00  0.00  0.00  0.00  0.00  0.00  0.00  0.00  0.00  0.00  0.00  0.00  0.00  0.00  0.00  0.00
   9   0.00  0.00  0.00  0.00  0.00  0.00  0.00  0.00  0.00  0.00  0.00  0.00  0.00  0.00  0.00  0.00  0.00  0.00  0.00  0.00
       0.00  0.00  0.00  0.00  0.00  0.00  0.00  0.00  0.00  0.00  0.00  0.00  0.00  0.00  0.00  0.00  0.00  0.00  0.00  0.00
  10   0.00  0.00  0.00  0.00  0.00  0.00  0.00  0.00  0.00  0.00  0.00  0.00  0.00  0.00  0.00  0.00  0.00  0.00  0.00  0.00
       0.00  0.00  0.00  0.00  0.00  0.00  0.00  0.00  0.00  0.00  0.00  0.00  0.00  0.00  0.00  0.00  0.00  0.00  0.00  0.00
  11   0.00  0.00  0.00  0.00  0.00  0.00  0.00  0.00  0.00  0.00  0.00  0.00  0.00  0.00  0.00  0.00  0.00  0.00  0.00  0.00
       0.00  0.00  0.00  0.00  0.00  0.00  0.00  0.00  0.00  0.00  0.00  0.00  0.00  0.00  0.00  0.00  0.00  0.00  0.00  0.00
  12   0.00  0.00  0.00  0.00  0.00  0.00  0.00  0.00  0.00  0.00  0.00  0.00  0.00  0.00  0.00  0.00  0.00  0.00  0.00  0.00
       0.00  0.00  0.00  0.00  0.00  0.00  0.00  0.00  0.00  0.00  0.00  0.00  0.00  0.00  0.00  0.00  0.00  0.00  0.00  0.00
  13   0.00  0.00  0.00  0.00  0.00  0.00  0.00  0.00  0.00  0.00  0.00  0.00  0.00  0.00  0.00  0.00  0.00  0.00  0.00  0.00
       0.00  0.00  0.00  0.00  0.00  0.00  0.00  0.00  0.00  0.00  0.00  0.00  0.00  0.00  0.00  0.00  0.00  0.00  0.00  0.00
  14   0.00  0.00  0.00  0.00  0.00  0.00  0.00  0.00  0.00  0.00  0.00  0.00  0.00  0.00  0.00  0.00  0.00  0.00  0.00  0.00
       0.00  0.00  0.00  0.00  0.00  0.00  0.00  0.00  0.00  0.00  0.00  0.00  0.00  0.00  0.00  0.00  0.00  0.00  0.00  0.00
  15   0.00  0.00  0.00  0.00  0.00  0.00  0.00  0.00  0.00  0.00  0.00  0.00  0.00  0.00  0.00  0.00  0.00  0.00  0.00  0.00
       0.00  0.00  0.00  0.00  0.00  0.00  0.00  0.00  0.00  0.00  0.00  0.00  0.00  0.00  0.00  0.00  0.00  0.00  0.00  0.00
  16   0.00  0.00  0.00  0.00  0.00  0.00  0.00  0.00  0.00  0.00  0.00  0.00  0.00  0.00  0.00  0.00  0.00  0.00  0.00  0.00
       0.00  0.00  0.00  0.00  0.00  0.00  0.00  0.00  0.00  0.00  0.00  0.00  0.00  0.00  0.00  0.00  0.00  0.00  0.00  0.00
  17   0.00  0.00  0.00  0.00  0.00  0.00  0.00  0.00  0.00  0.00  0.00  0.00  0.00  0.00  0.00  0.00  0.00  0.00  0.00  0.00
       0.00  0.00  0.00  0.00  0.00  0.00  0.00  0.00  0.00  0.00  0.00  0.00  0.00  0.00  0.00  0.00  0.00  0.00  0.00  0.00
  18   0.00  0.00  0.00  0.00  0.00  0.00  0.00  0.00  0.00  0.00  0.00  0.00  0.00  0.00  0.00  0.00  0.00  0.00  0.00  0.00
       0.00  0.00  0.00  0.00  0.00  0.00  0.00  0.00  0.00  0.00  0.00  0.00  0.00  0.00  0.00  0.00  0.00  0.00  0.00  0.00
  19   0.00  0.00  0.00  0.00  0.00  0.00  0.00  0.00  0.00  0.00  0.00  0.00  0.00  0.00  0.00  0.00  0.00  0.00  0.00  0.00
       0.00  0.00  0.00  0.00  0.00  0.00  0.00  0.00  0.00  0.00  0.00  0.00  0.00  0.00  0.00  0.00  0.00  0.00  0.00  0.00
  20   0.00  0.00  0.00  0.00  0.00  0.00  0.00  0.00  0.00  0.00  0.00  0.00  0.00  0.00  0.00  0.00  0.00  0.00  0.00  0.00
       0.00  0.00  0.00  0.00  0.00  0.00  0.00  0.00  0.00  0.00  0.00  0.00  0.00  0.00  0.00  0.00  0.00  0.00  0.00  0.00
  21   0.00  0.00  0.00  0.00  0.00  0.00  0.00  0.00  0.00  0.00  0.00  0.00  0.00  0.00  0.00  0.00  0.00  0.00  0.00  0.00
       0.00  0.00  0.00  0.00  0.00  0.00  0.00  0.00  0.00  0.00  0.00  0.00  0.00  0.00  0.00  0.00  0.00  0.00  0.00  0.00
  22   0.00  0.00  0.00  0.00  0.00  0.00  0.00  0.00  0.00  0.00  0.00  0.00  0.00  0.00  0.00  0.00  0.00  0.00  0.00  0.00
       0.00  0.00  0.00  0.00  0.00  0.00  0.00  0.00  0.00  0.00  0.00  0.00  0.00  0.00  0.00  0.00  0.00  0.00  0.00  0.00
  23   0.00  0.00  0.00  0.00  0.00  0.00  0.00  0.00  0.00  0.00  0.00  0.00  0.00  0.00  0.00  0.00  0.00  0.00  0.00  0.00
       0.00  0.00  0.00  0.00  0.00  0.00  0.00  0.00  0.00  0.00  0.00  0.00  0.00  0.00  0.00  0.00  0.00  0.00  0.00  0.00
  24   0.00  0.00  0.00  0.00  0.00  0.00  0.00  0.00  0.00  0.00  0.00  0.00  0.00  0.00  0.00  0.00  0.00  0.00  0.00  0.00
       0.00  0.00  0.00  0.00  0.00  0.00  0.00  0.00  0.00  0.00  0.00  0.00  0.00  0.00  0.00  0.00  0.00  0.00  0.00  0.00
  25   0.00  0.00  0.00  0.00  0.00  0.00  0.00  0.00  0.00  0.00  0.00  0.00  0.00  0.00  0.00  0.00  0.00  0.00  0.00  0.00
       0.00  0.00  0.00  0.00  0.00  0.00  0.00  0.00  0.00  0.00  0.00  0.00  0.00  0.00  0.00  0.00  0.00  0.00  0.00  0.00
  26   0.00  0.00  0.00  0.00  0.00  0.00  0.00  0.00  0.00  0.00  0.00  0.00  0.00  0.00  0.00  0.00  0.00  0.00  0.00  0.00
       0.00  0.00  0.00  0.00  0.00  0.00  0.00  0.00  0.00  0.00  0.00  0.00  0.00  0.00  0.00  0.00  0.00  0.00  0.00  0.00
  27   0.00  0.00  0.00  0.00  0.00  0.00  0.00  0.00  0.00  0.00  0.00  0.00  0.00  0.00  0.00  0.00  0.00  0.00  0.00  0.00
       0.00  0.00  0.00  0.00  0.00  0.00  0.00  0.00  0.00  0.00  0.00  0.00  0.00  0.00  0.00  0.00  0.00  0.00  0.00  0.00
  28   0.00  0.00  0.00  0.00  0.00  0.00  0.00  0.00  0.00  0.00  0.00  0.00  0.00  0.00  0.00  0.00  0.00  0.00  0.00  0.00
       0.00  0.00  0.00  0.00  0.00  0.00  0.00  0.00  0.00  0.00  0.00  0.00  0.00  0.00  0.00  0.00  0.00  0.00  0.00  0.00
  29   0.00  0.00  0.00  0.00  0.00  0.00  0.00  0.00  0.00  0.00  0.00  0.00  0.00  0.00  0.00  0.00  0.00  0.00  0.00  0.00
       0.00  0.00  0.00  0.00  0.00  0.00  0.00  0.00  0.00  0.00  0.00  0.00  0.00  0.00  0.00  0.00  0.00  0.00  0.00  0.00
  30   0.00  0.00  0.00  0.00  0.00  0.00  0.00  0.00  0.00  0.00  0.00  0.00  0.00  0.00  0.00  0.00  0.00  0.00  0.00  0.00
       0.00  0.00  0.00  0.00  0.00  0.00  0.00  0.00  0.00  0.00  0.00  0.00  0.00  0.00  0.00  0.00  0.00  0.00  0.00  0.00
  31   0.00  0.00  0.00  0.00  0.00  0.00  0.00  0.00  0.00  0.00  0.00  0.00  0.00  0.00  0.00  0.00  0.00  0.00  0.00  0.00
       0.00  0.00  0.00  0.00  0.00  0.00  0.00  0.00  0.00  0.00  0.00  0.00  0.00  0.00  0.00  0.00  0.00  0.00  0.00  0.00
  32   0.00  0.00  0.00  0.00  0.00  0.00  0.00  0.00  0.00  0.00  0.00  0.00  0.00  0.00  0.00  0.00  0.00  0.00  0.00  0.00
       0.00  0.00  0.00  0.00  0.00  0.00  0.00  0.00  0.00  0.00  0.00  0.00  0.00  0.00  0.00  0.00  0.00  0.00  0.00  0.00
  33   0.00  0.00  0.00  0.00  0.00  0.00  0.00  0.00  0.00  0.00  0.00  0.00  0.00  0.00  0.00  0.00  0.00  0.00  0.00  0.00
       0.00  0.00  0.00  0.00  0.00  0.00  0.00  0.00  0.00  0.00  0.00  0.00  0.00  0.00  0.00  0.00  0.00  0.00  0.00  0.00
  34   0.00  0.00  0.00  0.00  0.00  0.00  0.00  0.00  0.00  0.00  0.00  0.00  0.00  0.00  0.00  0.00  0.00  0.00  0.00  0.00
       0.00  0.00  0.00  0.00  0.00  0.00  0.00  0.00  0.00  0.00  0.00  0.00  0.00  0.00  0.00  0.00  0.00  0.00  0.00  0.00
  35   0.00  0.00  0.00  0.00  0.00  0.00  0.00  0.00  0.00  0.00  0.00  0.00  0.00  0.00  0.00  0.00  0.00  0.00  0.00  0.00
       0.00  0.00  0.00  0.00  0.00  0.00  0.00  0.00  0.00  0.00  0.00  0.00  0.00  0.00  0.00  0.00  0.00  0.00  0.00  0.00
  36   0.00  0.00  0.00  0.00  0.00  0.00  0.00  0.00  0.00  0.00  0.00  0.00  0.00  0.00  0.00  0.00  0.00  0.00  0.00  0.00
       0.00  0.00  0.00  0.00  0.00  0.00  0.00  0.00  0.00  0.00  0.00  0.00  0.00  0.00  0.00  0.00  0.00  0.00  0.00  0.00
  37   0.00  0.00  0.00  0.00  0.00  0.00  0.00  0.00  0.00  0.00  0.00  0.00  0.00  0.00  0.00  0.00  0.00  0.00  0.00  0.00
       0.00  0.00  0.00  0.00  0.00  0.00  0.00  0.00  0.00  0.00  0.00  0.00  0.00  0.00  0.00  0.00  0.00  0.00  0.00  0.00
  38   0.00  0.00  0.00  0.00  0.00  0.00  0.00  0.00  0.00  0.00  0.00  0.00  0.00  0.00  0.00  0.00  0.00  0.00  0.00  0.00
       0.00  0.00  0.00  0.00  0.00  0.00  0.00  0.00  0.00  0.00  0.00  0.00  0.00  0.00  0.00  0.00  0.00  0.00  0.00  0.00
  39   0.00  0.00  0.00  0.00  0.00  0.00  0.00  0.00  0.00  0.00  0.00  0.00  0.00  0.00  0.00  0.00  0.00  0.00  0.00  0.00
       0.00  0.00  0.00  0.00  0.00  0.00  0.00  0.00  0.00  0.00  0.00  0.00  0.00  0.00  0.00  0.00  0.00  0.00  0.00  0.00
  40   0.00  0.00  0.00  0.00  0.00  0.00  0.00  0.00  0.00  0.00  0.00  0.00  0.00  0.00  0.00  0.00  0.00  0.00  0.00  0.00
       0.00  0.00  0.00  0.00  0.00  0.00  0.00  0.00  0.00  0.00  0.00  0.00  0.00  0.00  0.00  0.00  0.00  0.00  0.00  0.00
 
 SOLVING FOR HEAD 

 CELL CONVERSIONS FOR ITER.=  1  LAYER=  1  STEP=  1  PERIOD=   1   (ROW,COL)
    DRY(  1,  1)   DRY(  1,  2)   DRY(  1,  3)   DRY(  1,  4)   DRY(  1,  5)   
    DRY(  1,  6)   DRY(  1,  7)   DRY(  1,  8)   DRY(  1,  9)   DRY(  1, 10)   
    DRY(  1, 11)   DRY(  1, 12)   DRY(  1, 13)   DRY(  1, 14)   DRY(  1, 15)   
    DRY(  1, 16)   DRY(  1, 17)   DRY(  1, 18)   DRY(  1, 19)   DRY(  1, 20)   
    DRY(  1, 21)   DRY(  1, 22)   DRY(  1, 23)   DRY(  1, 24)   DRY(  1, 25)   
    DRY(  1, 26)   DRY(  1, 27)   DRY(  1, 28)   DRY(  1, 29)   DRY(  1, 30)   
    DRY(  1, 31)   DRY(  1, 32)   DRY(  1, 33)   DRY(  1, 34)   DRY(  1, 35)   
    DRY(  1, 36)   DRY(  1, 37)   DRY(  1, 38)   DRY(  1, 39)   DRY(  1, 40)   
    DRY(  2,  1)   DRY(  2,  2)   DRY(  2,  3)   DRY(  2,  4)   DRY(  2,  5)   
    DRY(  2,  6)   DRY(  2,  7)   DRY(  2,  8)   DRY(  2,  9)   DRY(  2, 10)   
    DRY(  2, 11)   DRY(  2, 12)   DRY(  2, 13)   DRY(  2, 14)   DRY(  2, 15)   
    DRY(  2, 16)   DRY(  2, 17)   DRY(  2, 18)   DRY(  2, 19)   DRY(  2, 20)   
    DRY(  2, 21)   DRY(  2, 22)   DRY(  2, 23)   DRY(  2, 24)   DRY(  2, 25)   
    DRY(  2, 26)   DRY(  2, 27)   DRY(  2, 28)   DRY(  2, 29)   DRY(  2, 30)   
    DRY(  2, 31)   DRY(  2, 32)   DRY(  2, 33)   DRY(  2, 34)   DRY(  2, 35)   
    DRY(  2, 36)   DRY(  2, 37)   DRY(  2, 38)   DRY(  2, 39)   DRY(  2, 40)   
    DRY(  3,  1)   DRY(  3,  2)   DRY(  3,  3)   DRY(  3,  4)   DRY(  3,  5)   
    DRY(  3,  6)   DRY(  3,  7)   DRY(  3,  8)   DRY(  3,  9)   DRY(  3, 10)   
    DRY(  3, 11)   DRY(  3, 12)   DRY(  3, 13)   DRY(  3, 14)   DRY(  3, 15)   
    DRY(  3, 16)   DRY(  3, 17)   DRY(  3, 18)   DRY(  3, 19)   DRY(  3, 20)   
    DRY(  3, 21)   DRY(  3, 22)   DRY(  3, 23)   DRY(  3, 24)   DRY(  3, 25)   
    DRY(  3, 26)   DRY(  3, 27)   DRY(  3, 28)   DRY(  3, 29)   DRY(  3, 30)   
    DRY(  3, 31)   DRY(  3, 32)   DRY(  3, 33)   DRY(  3, 34)   DRY(  3, 35)   
    DRY(  3, 36)   DRY(  3, 37)   DRY(  3, 38)   DRY(  3, 39)   DRY(  3, 40)   
    DRY(  4,  1)   DRY(  4,  2)   DRY(  4,  3)   DRY(  4,  4)   DRY(  4,  5)   
    DRY(  4,  6)   DRY(  4,  7)   DRY(  4,  8)   DRY(  4,  9)   DRY(  4, 10)   
    DRY(  4, 11)   DRY(  4, 12)   DRY(  4, 13)   DRY(  4, 14)   DRY(  4, 15)   
    DRY(  4, 16)   DRY(  4, 17)   DRY(  4, 18)   DRY(  4, 19)   DRY(  4, 20)   
    DRY(  4, 21)   DRY(  4, 22)   DRY(  4, 23)   DRY(  4, 24)   DRY(  4, 25)   
    DRY(  4, 26)   DRY(  4, 27)   DRY(  4, 28)   DRY(  4, 29)   DRY(  4, 30)   
    DRY(  4, 31)   DRY(  4, 32)   DRY(  4, 33)   DRY(  4, 34)   DRY(  4, 35)   
    DRY(  4, 36)   DRY(  4, 37)   DRY(  4, 38)   DRY(  4, 39)   DRY(  4, 40)   
    DRY(  5,  1)   DRY(  5,  2)   DRY(  5,  3)   DRY(  5,  4)   DRY(  5,  5)   
    DRY(  5,  6)   DRY(  5,  7)   DRY(  5,  8)   DRY(  5,  9)   DRY(  5, 10)   
    DRY(  5, 11)   DRY(  5, 12)   DRY(  5, 13)   DRY(  5, 14)   DRY(  5, 15)   
    DRY(  5, 16)   DRY(  5, 17)   DRY(  5, 18)   DRY(  5, 19)   DRY(  5, 20)   
    DRY(  5, 21)   DRY(  5, 22)   DRY(  5, 23)   DRY(  5, 24)   DRY(  5, 25)   
    DRY(  5, 26)   DRY(  5, 27)   DRY(  5, 28)   DRY(  5, 29)   DRY(  5, 30)   
    DRY(  5, 31)   DRY(  5, 32)   DRY(  5, 33)   DRY(  5, 34)   DRY(  5, 35)   
    DRY(  5, 36)   DRY(  5, 37)   DRY(  5, 38)   DRY(  5, 39)   DRY(  5, 40)   
    DRY(  6,  1)   DRY(  6,  2)   DRY(  6,  3)   DRY(  6,  4)   DRY(  6,  5)   
    DRY(  6,  6)   DRY(  6,  7)   DRY(  6,  8)   DRY(  6,  9)   DRY(  6, 10)   
    DRY(  6, 11)   DRY(  6, 12)   DRY(  6, 13)   DRY(  6, 14)   DRY(  6, 15)   
    DRY(  6, 16)   DRY(  6, 17)   DRY(  6, 18)   DRY(  6, 19)   DRY(  6, 20)   
    DRY(  6, 21)   DRY(  6, 22)   DRY(  6, 23)   DRY(  6, 24)   DRY(  6, 25)   
    DRY(  6, 26)   DRY(  6, 27)   DRY(  6, 28)   DRY(  6, 29)   DRY(  6, 30)   
    DRY(  6, 31)   DRY(  6, 32)   DRY(  6, 33)   DRY(  6, 34)   DRY(  6, 35)   
    DRY(  6, 36)   DRY(  6, 37)   DRY(  6, 38)   DRY(  6, 39)   DRY(  6, 40)   
    DRY(  7,  1)   DRY(  7,  2)   DRY(  7,  3)   DRY(  7,  4)   DRY(  7,  5)   
    DRY(  7,  6)   DRY(  7,  7)   DRY(  7,  8)   DRY(  7,  9)   DRY(  7, 10)   
    DRY(  7, 11)   DRY(  7, 12)   DRY(  7, 13)   DRY(  7, 14)   DRY(  7, 15)   
    DRY(  7, 16)   DRY(  7, 17)   DRY(  7, 18)   DRY(  7, 19)   DRY(  7, 20)   
    DRY(  7, 21)   DRY(  7, 22)   DRY(  7, 23)   DRY(  7, 24)   DRY(  7, 25)   
    DRY(  7, 26)   DRY(  7, 27)   DRY(  7, 28)   DRY(  7, 29)   DRY(  7, 30)   
    DRY(  7, 31)   DRY(  7, 32)   DRY(  7, 33)   DRY(  7, 34)   DRY(  7, 35)   
    DRY(  7, 36)   DRY(  7, 37)   DRY(  7, 38)   DRY(  7, 39)   DRY(  7, 40)   
    DRY(  8,  1)   DRY(  8,  2)   DRY(  8,  3)   DRY(  8,  4)   DRY(  8,  5)   
    DRY(  8,  6)   DRY(  8,  7)   DRY(  8,  8)   DRY(  8,  9)   DRY(  8, 10)   
    DRY(  8, 11)   DRY(  8, 12)   DRY(  8, 13)   DRY(  8, 14)   DRY(  8, 15)   
    DRY(  8, 16)   DRY(  8, 17)   DRY(  8, 18)   DRY(  8, 19)   DRY(  8, 20)   
    DRY(  8, 21)   DRY(  8, 22)   DRY(  8, 23)   DRY(  8, 24)   DRY(  8, 25)   
    DRY(  8, 26)   DRY(  8, 27)   DRY(  8, 28)   DRY(  8, 29)   DRY(  8, 30)   
    DRY(  8, 31)   DRY(  8, 32)   DRY(  8, 33)   DRY(  8, 34)   DRY(  8, 35)   
    DRY(  8, 36)   DRY(  8, 37)   DRY(  8, 38)   DRY(  8, 39)   DRY(  8, 40)   
    DRY(  9,  1)   DRY(  9,  2)   DRY(  9,  3)   DRY(  9,  4)   DRY(  9,  5)   
    DRY(  9,  6)   DRY(  9,  7)   DRY(  9,  8)   DRY(  9,  9)   DRY(  9, 10)   
    DRY(  9, 11)   DRY(  9, 12)   DRY(  9, 13)   DRY(  9, 14)   DRY(  9, 15)   
    DRY(  9, 16)   DRY(  9, 17)   DRY(  9, 18)   DRY(  9, 19)   DRY(  9, 20)   
    DRY(  9, 21)   DRY(  9, 22)   DRY(  9, 23)   DRY(  9, 24)   DRY(  9, 25)   
    DRY(  9, 26)   DRY(  9, 27)   DRY(  9, 28)   DRY(  9, 29)   DRY(  9, 30)   
    DRY(  9, 31)   DRY(  9, 32)   DRY(  9, 33)   DRY(  9, 34)   DRY(  9, 35)   
    DRY(  9, 36)   DRY(  9, 37)   DRY(  9, 38)   DRY(  9, 39)   DRY(  9, 40)   
    DRY( 10,  1)   DRY( 10,  2)   DRY( 10,  3)   DRY( 10,  4)   DRY( 10,  5)   
    DRY( 10,  6)   DRY( 10,  7)   DRY( 10,  8)   DRY( 10,  9)   DRY( 10, 10)   
    DRY( 10, 11)   DRY( 10, 12)   DRY( 10, 13)   DRY( 10, 14)   DRY( 10, 15)   
    DRY( 10, 16)   DRY( 10, 17)   DRY( 10, 18)   DRY( 10, 19)   DRY( 10, 20)   
    DRY( 10, 21)   DRY( 10, 22)   DRY( 10, 23)   DRY( 10, 24)   DRY( 10, 25)   
    DRY( 10, 26)   DRY( 10, 27)   DRY( 10, 28)   DRY( 10, 29)   DRY( 10, 30)   
    DRY( 10, 31)   DRY( 10, 32)   DRY( 10, 33)   DRY( 10, 34)   DRY( 10, 35)   
    DRY( 10, 36)   DRY( 10, 37)   DRY( 10, 38)   DRY( 10, 39)   DRY( 10, 40)   
    DRY( 11,  1)   DRY( 11,  2)   DRY( 11,  3)   DRY( 11,  4)   DRY( 11,  5)   
    DRY( 11,  6)   DRY( 11,  7)   DRY( 11,  8)   DRY( 11,  9)   DRY( 11, 10)   
    DRY( 11, 11)   DRY( 11, 12)   DRY( 11, 13)   DRY( 11, 14)   DRY( 11, 15)   
    DRY( 11, 16)   DRY( 11, 17)   DRY( 11, 18)   DRY( 11, 19)   DRY( 11, 20)   
    DRY( 11, 21)   DRY( 11, 22)   DRY( 11, 23)   DRY( 11, 24)   DRY( 11, 25)   
    DRY( 11, 26)   DRY( 11, 27)   DRY( 11, 28)   DRY( 11, 29)   DRY( 11, 30)   
    DRY( 11, 31)   DRY( 11, 32)   DRY( 11, 33)   DRY( 11, 34)   DRY( 11, 35)   
    DRY( 11, 36)   DRY( 11, 37)   DRY( 11, 38)   DRY( 11, 39)   DRY( 11, 40)   
    DRY( 12,  1)   DRY( 12,  2)   DRY( 12,  3)   DRY( 12,  4)   DRY( 12,  5)   
    DRY( 12,  6)   DRY( 12,  7)   DRY( 12,  8)   DRY( 12,  9)   DRY( 12, 10)   
    DRY( 12, 11)   DRY( 12, 12)   DRY( 12, 13)   DRY( 12, 14)   DRY( 12, 15)   
    DRY( 12, 16)   DRY( 12, 17)   DRY( 12, 18)   DRY( 12, 19)   DRY( 12, 20)   
    DRY( 12, 21)   DRY( 12, 22)   DRY( 12, 23)   DRY( 12, 24)   DRY( 12, 25)   
    DRY( 12, 26)   DRY( 12, 27)   DRY( 12, 28)   DRY( 12, 29)   DRY( 12, 30)   
    DRY( 12, 31)   DRY( 12, 32)   DRY( 12, 33)   DRY( 12, 34)   DRY( 12, 35)   
    DRY( 12, 36)   DRY( 12, 37)   DRY( 12, 38)   DRY( 12, 39)   DRY( 12, 40)   
    DRY( 13,  1)   DRY( 13,  2)   DRY( 13,  3)   DRY( 13,  4)   DRY( 13,  5)   
    DRY( 13,  6)   DRY( 13,  7)   DRY( 13,  8)   DRY( 13,  9)   DRY( 13, 10)   
    DRY( 13, 11)   DRY( 13, 12)   DRY( 13, 13)   DRY( 13, 14)   DRY( 13, 15)   
    DRY( 13, 16)   DRY( 13, 17)   DRY( 13, 18)   DRY( 13, 19)   DRY( 13, 20)   
    DRY( 13, 21)   DRY( 13, 22)   DRY( 13, 23)   DRY( 13, 24)   DRY( 13, 25)   
    DRY( 13, 26)   DRY( 13, 27)   DRY( 13, 28)   DRY( 13, 29)   DRY( 13, 30)   
    DRY( 13, 31)   DRY( 13, 32)   DRY( 13, 33)   DRY( 13, 34)   DRY( 13, 35)   
    DRY( 13, 36)   DRY( 13, 37)   DRY( 13, 38)   DRY( 13, 39)   DRY( 13, 40)   
    DRY( 14,  1)   DRY( 14,  2)   DRY( 14,  3)   DRY( 14,  4)   DRY( 14,  5)   
    DRY( 14,  6)   DRY( 14,  7)   DRY( 14,  8)   DRY( 14,  9)   DRY( 14, 10)   
    DRY( 14, 11)   DRY( 14, 12)   DRY( 14, 13)   DRY( 14, 14)   DRY( 14, 15)   
    DRY( 14, 16)   DRY( 14, 17)   DRY( 14, 18)   DRY( 14, 19)   DRY( 14, 20)   
    DRY( 14, 21)   DRY( 14, 22)   DRY( 14, 23)   DRY( 14, 24)   DRY( 14, 25)   
    DRY( 14, 26)   DRY( 14, 27)   DRY( 14, 28)   DRY( 14, 29)   DRY( 14, 30)   
    DRY( 14, 31)   DRY( 14, 32)   DRY( 14, 33)   DRY( 14, 34)   DRY( 14, 35)   
    DRY( 14, 36)   DRY( 14, 37)   DRY( 14, 38)   DRY( 14, 39)   DRY( 14, 40)   
    DRY( 15,  1)   DRY( 15,  2)   DRY( 15,  3)   DRY( 15,  4)   DRY( 15,  5)   
    DRY( 15,  6)   DRY( 15,  7)   DRY( 15,  8)   DRY( 15,  9)   DRY( 15, 10)   
    DRY( 15, 11)   DRY( 15, 12)   DRY( 15, 13)   DRY( 15, 14)   DRY( 15, 15)   
    DRY( 15, 16)   DRY( 15, 17)   DRY( 15, 18)   DRY( 15, 19)   DRY( 15, 20)   
    DRY( 15, 21)   DRY( 15, 22)   DRY( 15, 23)   DRY( 15, 24)   DRY( 15, 25)   
    DRY( 15, 26)   DRY( 15, 27)   DRY( 15, 28)   DRY( 15, 29)   DRY( 15, 30)   
    DRY( 15, 31)   DRY( 15, 32)   DRY( 15, 33)   DRY( 15, 34)   DRY( 15, 35)   
    DRY( 15, 36)   DRY( 15, 37)   DRY( 15, 38)   DRY( 15, 39)   DRY( 15, 40)   
    DRY( 16,  1)   DRY( 16,  2)   DRY( 16,  3)   DRY( 16,  4)   DRY( 16,  5)   
    DRY( 16,  6)   DRY( 16,  7)   DRY( 16,  8)   DRY( 16,  9)   DRY( 16, 10)   
    DRY( 16, 11)   DRY( 16, 12)   DRY( 16, 13)   DRY( 16, 14)   DRY( 16, 15)   
    DRY( 16, 16)   DRY( 16, 17)   DRY( 16, 18)   DRY( 16, 19)   DRY( 16, 20)   
    DRY( 16, 21)   DRY( 16, 22)   DRY( 16, 23)   DRY( 16, 24)   DRY( 16, 25)   
    DRY( 16, 26)   DRY( 16, 27)   DRY( 16, 28)   DRY( 16, 29)   DRY( 16, 30)   
    DRY( 16, 31)   DRY( 16, 32)   DRY( 16, 33)   DRY( 16, 34)   DRY( 16, 35)   
    DRY( 16, 36)   DRY( 16, 37)   DRY( 16, 38)   DRY( 16, 39)   DRY( 16, 40)   
    DRY( 17,  1)   DRY( 17,  2)   DRY( 17,  3)   DRY( 17,  4)   DRY( 17,  5)   
    DRY( 17,  6)   DRY( 17,  7)   DRY( 17,  8)   DRY( 17,  9)   DRY( 17, 10)   
    DRY( 17, 11)   DRY( 17, 12)   DRY( 17, 13)   DRY( 17, 14)   DRY( 17, 15)   
    DRY( 17, 16)   DRY( 17, 17)   DRY( 17, 18)   DRY( 17, 19)   DRY( 17, 20)   
    DRY( 17, 21)   DRY( 17, 22)   DRY( 17, 23)   DRY( 17, 24)   DRY( 17, 25)   
    DRY( 17, 26)   DRY( 17, 27)   DRY( 17, 28)   DRY( 17, 29)   DRY( 17, 30)   
    DRY( 17, 31)   DRY( 17, 32)   DRY( 17, 33)   DRY( 17, 34)   DRY( 17, 35)   
    DRY( 17, 36)   DRY( 17, 37)   DRY( 17, 38)   DRY( 17, 39)   DRY( 17, 40)   
    DRY( 18,  1)   DRY( 18,  2)   DRY( 18,  3)   DRY( 18,  4)   DRY( 18,  5)   
    DRY( 18,  6)   DRY( 18,  7)   DRY( 18,  8)   DRY( 18,  9)   DRY( 18, 10)   
    DRY( 18, 11)   DRY( 18, 12)   DRY( 18, 13)   DRY( 18, 14)   DRY( 18, 15)   
    DRY( 18, 16)   DRY( 18, 17)   DRY( 18, 18)   DRY( 18, 19)   DRY( 18, 20)   
    DRY( 18, 21)   DRY( 18, 22)   DRY( 18, 23)   DRY( 18, 24)   DRY( 18, 25)   
    DRY( 18, 26)   DRY( 18, 27)   DRY( 18, 28)   DRY( 18, 29)   DRY( 18, 30)   
    DRY( 18, 31)   DRY( 18, 32)   DRY( 18, 33)   DRY( 18, 34)   DRY( 18, 35)   
    DRY( 18, 36)   DRY( 18, 37)   DRY( 18, 38)   DRY( 18, 39)   DRY( 18, 40)   
    DRY( 19,  1)   DRY( 19,  2)   DRY( 19,  3)   DRY( 19,  4)   DRY( 19,  5)   
    DRY( 19,  6)   DRY( 19,  7)   DRY( 19,  8)   DRY( 19,  9)   DRY( 19, 10)   
    DRY( 19, 11)   DRY( 19, 12)   DRY( 19, 13)   DRY( 19, 14)   DRY( 19, 15)   
    DRY( 19, 16)   DRY( 19, 17)   DRY( 19, 18)   DRY( 19, 19)   DRY( 19, 20)   
    DRY( 19, 21)   DRY( 19, 22)   DRY( 19, 23)   DRY( 19, 24)   DRY( 19, 25)   
    DRY( 19, 26)   DRY( 19, 27)   DRY( 19, 28)   DRY( 19, 29)   DRY( 19, 30)   
    DRY( 19, 31)   DRY( 19, 32)   DRY( 19, 33)   DRY( 19, 34)   DRY( 19, 35)   
    DRY( 19, 36)   DRY( 19, 37)   DRY( 19, 38)   DRY( 19, 39)   DRY( 19, 40)   
    DRY( 20,  1)   DRY( 20,  2)   DRY( 20,  3)   DRY( 20,  4)   DRY( 20,  5)   
    DRY( 20,  6)   DRY( 20,  7)   DRY( 20,  8)   DRY( 20,  9)   DRY( 20, 10)   
    DRY( 20, 11)   DRY( 20, 12)   DRY( 20, 13)   DRY( 20, 14)   DRY( 20, 15)   
    DRY( 20, 16)   DRY( 20, 17)   DRY( 20, 18)   DRY( 20, 19)   DRY( 20, 20)   
    DRY( 20, 21)   DRY( 20, 22)   DRY( 20, 23)   DRY( 20, 24)   DRY( 20, 25)   
    DRY( 20, 26)   DRY( 20, 27)   DRY( 20, 28)   DRY( 20, 29)   DRY( 20, 30)   
    DRY( 20, 31)   DRY( 20, 32)   DRY( 20, 33)   DRY( 20, 34)   DRY( 20, 35)   
    DRY( 20, 36)   DRY( 20, 37)   DRY( 20, 38)   DRY( 20, 39)   DRY( 20, 40)   
    DRY( 21,  1)   DRY( 21,  2)   DRY( 21,  3)   DRY( 21,  4)   DRY( 21,  5)   
    DRY( 21,  6)   DRY( 21,  7)   DRY( 21,  8)   DRY( 21,  9)   DRY( 21, 10)   
    DRY( 21, 11)   DRY( 21, 12)   DRY( 21, 13)   DRY( 21, 14)   DRY( 21, 15)   
    DRY( 21, 16)   DRY( 21, 17)   DRY( 21, 18)   DRY( 21, 19)   DRY( 21, 20)   
    DRY( 21, 21)   DRY( 21, 22)   DRY( 21, 23)   DRY( 21, 24)   DRY( 21, 25)   
    DRY( 21, 26)   DRY( 21, 27)   DRY( 21, 28)   DRY( 21, 29)   DRY( 21, 30)   
    DRY( 21, 31)   DRY( 21, 32)   DRY( 21, 33)   DRY( 21, 34)   DRY( 21, 35)   
    DRY( 21, 36)   DRY( 21, 37)   DRY( 21, 38)   DRY( 21, 39)   DRY( 21, 40)   
    DRY( 22,  1)   DRY( 22,  2)   DRY( 22,  3)   DRY( 22,  4)   DRY( 22,  5)   
    DRY( 22,  6)   DRY( 22,  7)   DRY( 22,  8)   DRY( 22,  9)   DRY( 22, 10)   
    DRY( 22, 11)   DRY( 22, 12)   DRY( 22, 13)   DRY( 22, 14)   DRY( 22, 15)   
    DRY( 22, 16)   DRY( 22, 17)   DRY( 22, 18)   DRY( 22, 19)   DRY( 22, 20)   
    DRY( 22, 21)   DRY( 22, 22)   DRY( 22, 23)   DRY( 22, 24)   DRY( 22, 25)   
    DRY( 22, 26)   DRY( 22, 27)   DRY( 22, 28)   DRY( 22, 29)   DRY( 22, 30)   
    DRY( 22, 31)   DRY( 22, 32)   DRY( 22, 33)   DRY( 22, 34)   DRY( 22, 35)   
    DRY( 22, 36)   DRY( 22, 37)   DRY( 22, 38)   DRY( 22, 39)   DRY( 22, 40)   
    DRY( 23,  1)   DRY( 23,  2)   DRY( 23,  3)   DRY( 23,  4)   DRY( 23,  5)   
    DRY( 23,  6)   DRY( 23,  7)   DRY( 23,  8)   DRY( 23,  9)   DRY( 23, 10)   
    DRY( 23, 11)   DRY( 23, 12)   DRY( 23, 13)   DRY( 23, 14)   DRY( 23, 15)   
    DRY( 23, 16)   DRY( 23, 17)   DRY( 23, 18)   DRY( 23, 19)   DRY( 23, 20)   
    DRY( 23, 21)   DRY( 23, 22)   DRY( 23, 23)   DRY( 23, 24)   DRY( 23, 25)   
    DRY( 23, 26)   DRY( 23, 27)   DRY( 23, 28)   DRY( 23, 29)   DRY( 23, 30)   
    DRY( 23, 31)   DRY( 23, 32)   DRY( 23, 33)   DRY( 23, 34)   DRY( 23, 35)   
    DRY( 23, 36)   DRY( 23, 37)   DRY( 23, 38)   DRY( 23, 39)   DRY( 23, 40)   
    DRY( 24,  1)   DRY( 24,  2)   DRY( 24,  3)   DRY( 24,  4)   DRY( 24,  5)   
    DRY( 24,  6)   DRY( 24,  7)   DRY( 24,  8)   DRY( 24,  9)   DRY( 24, 10)   
    DRY( 24, 11)   DRY( 24, 12)   DRY( 24, 13)   DRY( 24, 14)   DRY( 24, 15)   
    DRY( 24, 16)   DRY( 24, 17)   DRY( 24, 18)   DRY( 24, 19)   DRY( 24, 20)   
    DRY( 24, 21)   DRY( 24, 22)   DRY( 24, 23)   DRY( 24, 24)   DRY( 24, 25)   
    DRY( 24, 26)   DRY( 24, 27)   DRY( 24, 28)   DRY( 24, 29)   DRY( 24, 30)   
    DRY( 24, 31)   DRY( 24, 32)   DRY( 24, 33)   DRY( 24, 34)   DRY( 24, 35)   
    DRY( 24, 36)   DRY( 24, 37)   DRY( 24, 38)   DRY( 24, 39)   DRY( 24, 40)   
    DRY( 25,  1)   DRY( 25,  2)   DRY( 25,  3)   DRY( 25,  4)   DRY( 25,  5)   
    DRY( 25,  6)   DRY( 25,  7)   DRY( 25,  8)   DRY( 25,  9)   DRY( 25, 10)   
    DRY( 25, 11)   DRY( 25, 12)   DRY( 25, 13)   DRY( 25, 14)   DRY( 25, 15)   
    DRY( 25, 16)   DRY( 25, 17)   DRY( 25, 18)   DRY( 25, 19)   DRY( 25, 20)   
    DRY( 25, 21)   DRY( 25, 22)   DRY( 25, 23)   DRY( 25, 24)   DRY( 25, 25)   
    DRY( 25, 26)   DRY( 25, 27)   DRY( 25, 28)   DRY( 25, 29)   DRY( 25, 30)   
    DRY( 25, 31)   DRY( 25, 32)   DRY( 25, 33)   DRY( 25, 34)   DRY( 25, 35)   
    DRY( 25, 36)   DRY( 25, 37)   DRY( 25, 38)   DRY( 25, 39)   DRY( 25, 40)   
    DRY( 26,  1)   DRY( 26,  2)   DRY( 26,  3)   DRY( 26,  4)   DRY( 26,  5)   
    DRY( 26,  6)   DRY( 26,  7)   DRY( 26,  8)   DRY( 26,  9)   DRY( 26, 10)   
    DRY( 26, 11)   DRY( 26, 12)   DRY( 26, 13)   DRY( 26, 14)   DRY( 26, 15)   
    DRY( 26, 16)   DRY( 26, 17)   DRY( 26, 18)   DRY( 26, 19)   DRY( 26, 20)   
    DRY( 26, 21)   DRY( 26, 22)   DRY( 26, 23)   DRY( 26, 24)   DRY( 26, 25)   
    DRY( 26, 26)   DRY( 26, 27)   DRY( 26, 28)   DRY( 26, 29)   DRY( 26, 30)   
    DRY( 26, 31)   DRY( 26, 32)   DRY( 26, 33)   DRY( 26, 34)   DRY( 26, 35)   
    DRY( 26, 36)   DRY( 26, 37)   DRY( 26, 38)   DRY( 26, 39)   DRY( 26, 40)   
    DRY( 27,  1)   DRY( 27,  2)   DRY( 27,  3)   DRY( 27,  4)   DRY( 27,  5)   
    DRY( 27,  6)   DRY( 27,  7)   DRY( 27,  8)   DRY( 27,  9)   DRY( 27, 10)   
    DRY( 27, 11)   DRY( 27, 12)   DRY( 27, 13)   DRY( 27, 14)   DRY( 27, 15)   
    DRY( 27, 16)   DRY( 27, 17)   DRY( 27, 18)   DRY( 27, 19)   DRY( 27, 20)   
    DRY( 27, 21)   DRY( 27, 22)   DRY( 27, 23)   DRY( 27, 24)   DRY( 27, 25)   
    DRY( 27, 26)   DRY( 27, 27)   DRY( 27, 28)   DRY( 27, 29)   DRY( 27, 30)   
    DRY( 27, 31)   DRY( 27, 32)   DRY( 27, 33)   DRY( 27, 34)   DRY( 27, 35)   
    DRY( 27, 36)   DRY( 27, 37)   DRY( 27, 38)   DRY( 27, 39)   DRY( 27, 40)   
    DRY( 28,  1)   DRY( 28,  2)   DRY( 28,  3)   DRY( 28,  4)   DRY( 28,  5)   
    DRY( 28,  6)   DRY( 28,  7)   DRY( 28,  8)   DRY( 28,  9)   DRY( 28, 10)   
    DRY( 28, 11)   DRY( 28, 12)   DRY( 28, 13)   DRY( 28, 14)   DRY( 28, 15)   
    DRY( 28, 16)   DRY( 28, 17)   DRY( 28, 18)   DRY( 28, 19)   DRY( 28, 20)   
    DRY( 28, 21)   DRY( 28, 22)   DRY( 28, 23)   DRY( 28, 24)   DRY( 28, 25)   
    DRY( 28, 26)   DRY( 28, 27)   DRY( 28, 28)   DRY( 28, 29)   DRY( 28, 30)   
    DRY( 28, 31)   DRY( 28, 32)   DRY( 28, 33)   DRY( 28, 34)   DRY( 28, 35)   
    DRY( 28, 36)   DRY( 28, 37)   DRY( 28, 38)   DRY( 28, 39)   DRY( 28, 40)   
    DRY( 29,  1)   DRY( 29,  2)   DRY( 29,  3)   DRY( 29,  4)   DRY( 29,  5)   
    DRY( 29,  6)   DRY( 29,  7)   DRY( 29,  8)   DRY( 29,  9)   DRY( 29, 10)   
    DRY( 29, 11)   DRY( 29, 12)   DRY( 29, 13)   DRY( 29, 14)   DRY( 29, 15)   
    DRY( 29, 16)   DRY( 29, 17)   DRY( 29, 18)   DRY( 29, 19)   DRY( 29, 20)   
    DRY( 29, 21)   DRY( 29, 22)   DRY( 29, 23)   DRY( 29, 24)   DRY( 29, 25)   
    DRY( 29, 26)   DRY( 29, 27)   DRY( 29, 28)   DRY( 29, 29)   DRY( 29, 30)   
    DRY( 29, 31)   DRY( 29, 32)   DRY( 29, 33)   DRY( 29, 34)   DRY( 29, 35)   
    DRY( 29, 36)   DRY( 29, 37)   DRY( 29, 38)   DRY( 29, 39)   DRY( 29, 40)   
    DRY( 30,  1)   DRY( 30,  2)   DRY( 30,  3)   DRY( 30,  4)   DRY( 30,  5)   
    DRY( 30,  6)   DRY( 30,  7)   DRY( 30,  8)   DRY( 30,  9)   DRY( 30, 10)   
    DRY( 30, 11)   DRY( 30, 12)   DRY( 30, 13)   DRY( 30, 14)   DRY( 30, 15)   
    DRY( 30, 16)   DRY( 30, 17)   DRY( 30, 18)   DRY( 30, 19)   DRY( 30, 20)   
    DRY( 30, 21)   DRY( 30, 22)   DRY( 30, 23)   DRY( 30, 24)   DRY( 30, 25)   
    DRY( 30, 26)   DRY( 30, 27)   DRY( 30, 28)   DRY( 30, 29)   DRY( 30, 30)   
    DRY( 30, 31)   DRY( 30, 32)   DRY( 30, 33)   DRY( 30, 34)   DRY( 30, 35)   
    DRY( 30, 36)   DRY( 30, 37)   DRY( 30, 38)   DRY( 30, 39)   DRY( 30, 40)   
    DRY( 31,  1)   DRY( 31,  2)   DRY( 31,  3)   DRY( 31,  4)   DRY( 31,  5)   
    DRY( 31,  6)   DRY( 31,  7)   DRY( 31,  8)   DRY( 31,  9)   DRY( 31, 10)   
    DRY( 31, 11)   DRY( 31, 12)   DRY( 31, 13)   DRY( 31, 14)   DRY( 31, 15)   
    DRY( 31, 16)   DRY( 31, 17)   DRY( 31, 18)   DRY( 31, 19)   DRY( 31, 20)   
    DRY( 31, 21)   DRY( 31, 22)   DRY( 31, 23)   DRY( 31, 24)   DRY( 31, 25)   
    DRY( 31, 26)   DRY( 31, 27)   DRY( 31, 28)   DRY( 31, 29)   DRY( 31, 30)   
    DRY( 31, 31)   DRY( 31, 32)   DRY( 31, 33)   DRY( 31, 34)   DRY( 31, 35)   
    DRY( 31, 36)   DRY( 31, 37)   DRY( 31, 38)   DRY( 31, 39)   DRY( 31, 40)   
    DRY( 32,  1)   DRY( 32,  2)   DRY( 32,  3)   DRY( 32,  4)   DRY( 32,  5)   
    DRY( 32,  6)   DRY( 32,  7)   DRY( 32,  8)   DRY( 32,  9)   DRY( 32, 10)   
    DRY( 32, 11)   DRY( 32, 12)   DRY( 32, 13)   DRY( 32, 14)   DRY( 32, 15)   
    DRY( 32, 16)   DRY( 32, 17)   DRY( 32, 18)   DRY( 32, 19)   DRY( 32, 20)   
    DRY( 32, 21)   DRY( 32, 22)   DRY( 32, 23)   DRY( 32, 24)   DRY( 32, 25)   
    DRY( 32, 26)   DRY( 32, 27)   DRY( 32, 28)   DRY( 32, 29)   DRY( 32, 30)   
    DRY( 32, 31)   DRY( 32, 32)   DRY( 32, 33)   DRY( 32, 34)   DRY( 32, 35)   
    DRY( 32, 36)   DRY( 32, 37)   DRY( 32, 38)   DRY( 32, 39)   DRY( 32, 40)   
    DRY( 33,  1)   DRY( 33,  2)   DRY( 33,  3)   DRY( 33,  4)   DRY( 33,  5)   
    DRY( 33,  6)   DRY( 33,  7)   DRY( 33,  8)   DRY( 33,  9)   DRY( 33, 10)   
    DRY( 33, 11)   DRY( 33, 12)   DRY( 33, 13)   DRY( 33, 14)   DRY( 33, 15)   
    DRY( 33, 16)   DRY( 33, 17)   DRY( 33, 18)   DRY( 33, 19)   DRY( 33, 20)   
    DRY( 33, 21)   DRY( 33, 22)   DRY( 33, 23)   DRY( 33, 24)   DRY( 33, 25)   
    DRY( 33, 26)   DRY( 33, 27)   DRY( 33, 28)   DRY( 33, 29)   DRY( 33, 30)   
    DRY( 33, 31)   DRY( 33, 32)   DRY( 33, 33)   DRY( 33, 34)   DRY( 33, 35)   
    DRY( 33, 36)   DRY( 33, 37)   DRY( 33, 38)   DRY( 33, 39)   DRY( 33, 40)   
    DRY( 34,  1)   DRY( 34,  2)   DRY( 34,  3)   DRY( 34,  4)   DRY( 34,  5)   
    DRY( 34,  6)   DRY( 34,  7)   DRY( 34,  8)   DRY( 34,  9)   DRY( 34, 10)   
    DRY( 34, 11)   DRY( 34, 12)   DRY( 34, 13)   DRY( 34, 14)   DRY( 34, 15)   
    DRY( 34, 16)   DRY( 34, 17)   DRY( 34, 18)   DRY( 34, 19)   DRY( 34, 20)   
    DRY( 34, 21)   DRY( 34, 22)   DRY( 34, 23)   DRY( 34, 24)   DRY( 34, 25)   
    DRY( 34, 26)   DRY( 34, 27)   DRY( 34, 28)   DRY( 34, 29)   DRY( 34, 30)   
    DRY( 34, 31)   DRY( 34, 32)   DRY( 34, 33)   DRY( 34, 34)   DRY( 34, 35)   
    DRY( 34, 36)   DRY( 34, 37)   DRY( 34, 38)   DRY( 34, 39)   DRY( 34, 40)   
    DRY( 35,  1)   DRY( 35,  2)   DRY( 35,  3)   DRY( 35,  4)   DRY( 35,  5)   
    DRY( 35,  6)   DRY( 35,  7)   DRY( 35,  8)   DRY( 35,  9)   DRY( 35, 10)   
    DRY( 35, 11)   DRY( 35, 12)   DRY( 35, 13)   DRY( 35, 14)   DRY( 35, 15)   
    DRY( 35, 16)   DRY( 35, 17)   DRY( 35, 18)   DRY( 35, 19)   DRY( 35, 20)   
    DRY( 35, 21)   DRY( 35, 22)   DRY( 35, 23)   DRY( 35, 24)   DRY( 35, 25)   
    DRY( 35, 26)   DRY( 35, 27)   DRY( 35, 28)   DRY( 35, 29)   DRY( 35, 30)   
    DRY( 35, 31)   DRY( 35, 32)   DRY( 35, 33)   DRY( 35, 34)   DRY( 35, 35)   
    DRY( 35, 36)   DRY( 35, 37)   DRY( 35, 38)   DRY( 35, 39)   DRY( 35, 40)   
    DRY( 36,  1)   DRY( 36,  2)   DRY( 36,  3)   DRY( 36,  4)   DRY( 36,  5)   
    DRY( 36,  6)   DRY( 36,  7)   DRY( 36,  8)   DRY( 36,  9)   DRY( 36, 10)   
    DRY( 36, 11)   DRY( 36, 12)   DRY( 36, 13)   DRY( 36, 14)   DRY( 36, 15)   
    DRY( 36, 16)   DRY( 36, 17)   DRY( 36, 18)   DRY( 36, 19)   DRY( 36, 20)   
    DRY( 36, 21)   DRY( 36, 22)   DRY( 36, 23)   DRY( 36, 24)   DRY( 36, 25)   
    DRY( 36, 26)   DRY( 36, 27)   DRY( 36, 28)   DRY( 36, 29)   DRY( 36, 30)   
    DRY( 36, 31)   DRY( 36, 32)   DRY( 36, 33)   DRY( 36, 34)   DRY( 36, 35)   
    DRY( 36, 36)   DRY( 36, 37)   DRY( 36, 38)   DRY( 36, 39)   DRY( 36, 40)   
    DRY( 37,  1)   DRY( 37,  2)   DRY( 37,  3)   DRY( 37,  4)   DRY( 37,  5)   
    DRY( 37,  6)   DRY( 37,  7)   DRY( 37,  8)   DRY( 37,  9)   DRY( 37, 10)   
    DRY( 37, 11)   DRY( 37, 12)   DRY( 37, 13)   DRY( 37, 14)   DRY( 37, 15)   
    DRY( 37, 16)   DRY( 37, 17)   DRY( 37, 18)   DRY( 37, 19)   DRY( 37, 20)   
    DRY( 37, 21)   DRY( 37, 22)   DRY( 37, 23)   DRY( 37, 24)   DRY( 37, 25)   
    DRY( 37, 26)   DRY( 37, 27)   DRY( 37, 28)   DRY( 37, 29)   DRY( 37, 30)   
    DRY( 37, 31)   DRY( 37, 32)   DRY( 37, 33)   DRY( 37, 34)   DRY( 37, 35)   
    DRY( 37, 36)   DRY( 37, 37)   DRY( 37, 38)   DRY( 37, 39)   DRY( 37, 40)   
    DRY( 38,  1)   DRY( 38,  2)   DRY( 38,  3)   DRY( 38,  4)   DRY( 38,  5)   
    DRY( 38,  6)   DRY( 38,  7)   DRY( 38,  8)   DRY( 38,  9)   DRY( 38, 10)   
    DRY( 38, 11)   DRY( 38, 12)   DRY( 38, 13)   DRY( 38, 14)   DRY( 38, 15)   
    DRY( 38, 16)   DRY( 38, 17)   DRY( 38, 18)   DRY( 38, 19)   DRY( 38, 20)   
    DRY( 38, 21)   DRY( 38, 22)   DRY( 38, 23)   DRY( 38, 24)   DRY( 38, 25)   
    DRY( 38, 26)   DRY( 38, 27)   DRY( 38, 28)   DRY( 38, 29)   DRY( 38, 30)   
    DRY( 38, 31)   DRY( 38, 32)   DRY( 38, 33)   DRY( 38, 34)   DRY( 38, 35)   
    DRY( 38, 36)   DRY( 38, 37)   DRY( 38, 38)   DRY( 38, 39)   DRY( 38, 40)   
    DRY( 39,  1)   DRY( 39,  2)   DRY( 39,  3)   DRY( 39,  4)   DRY( 39,  5)   
    DRY( 39,  6)   DRY( 39,  7)   DRY( 39,  8)   DRY( 39,  9)   DRY( 39, 10)   
    DRY( 39, 11)   DRY( 39, 12)   DRY( 39, 13)   DRY( 39, 14)   DRY( 39, 15)   
    DRY( 39, 16)   DRY( 39, 17)   DRY( 39, 18)   DRY( 39, 19)   DRY( 39, 20)   
    DRY( 39, 21)   DRY( 39, 22)   DRY( 39, 23)   DRY( 39, 24)   DRY( 39, 25)   
    DRY( 39, 26)   DRY( 39, 27)   DRY( 39, 28)   DRY( 39, 29)   DRY( 39, 30)   
    DRY( 39, 31)   DRY( 39, 32)   DRY( 39, 33)   DRY( 39, 34)   DRY( 39, 35)   
    DRY( 39, 36)   DRY( 39, 37)   DRY( 39, 38)   DRY( 39, 39)   DRY( 39, 40)   
    DRY( 40,  1)   DRY( 40,  2)   DRY( 40,  3)   DRY( 40,  4)   DRY( 40,  5)   
    DRY( 40,  6)   DRY( 40,  7)   DRY( 40,  8)   DRY( 40,  9)   DRY( 40, 10)   
    DRY( 40, 11)   DRY( 40, 12)   DRY( 40, 13)   DRY( 40, 14)   DRY( 40, 15)   
    DRY( 40, 16)   DRY( 40, 17)   DRY( 40, 18)   DRY( 40, 19)   DRY( 40, 20)   
    DRY( 40, 21)   DRY( 40, 22)   DRY( 40, 23)   DRY( 40, 24)   DRY( 40, 25)   
    DRY( 40, 26)   DRY( 40, 27)   DRY( 40, 28)   DRY( 40, 29)   DRY( 40, 30)   
    DRY( 40, 31)   DRY( 40, 32)   DRY( 40, 33)   DRY( 40, 34)   DRY( 40, 35)   
    DRY( 40, 36)   DRY( 40, 37)   DRY( 40, 38)   DRY( 40, 39)   DRY( 40, 40)   

 CELL CONVERSIONS FOR ITER.=  1  LAYER=  2  STEP=  1  PERIOD=   1   (ROW,COL)
    DRY(  1,  1)   DRY(  1,  2)   DRY(  1,  3)   DRY(  1,  4)   DRY(  1,  5)   
    DRY(  1,  6)   DRY(  1,  7)   DRY(  1,  8)   DRY(  1,  9)   DRY(  1, 10)   
    DRY(  1, 11)   DRY(  1, 12)   DRY(  1, 13)   DRY(  1, 14)   DRY(  1, 15)   
    DRY(  1, 16)   DRY(  1, 17)   DRY(  1, 18)   DRY(  1, 19)   DRY(  1, 20)   
    DRY(  1, 21)   DRY(  1, 22)   DRY(  1, 23)   DRY(  1, 24)   DRY(  1, 25)   
    DRY(  1, 26)   DRY(  1, 27)   DRY(  1, 28)   DRY(  1, 29)   DRY(  1, 30)   
    DRY(  1, 31)   DRY(  1, 32)   DRY(  1, 33)   DRY(  1, 34)   DRY(  1, 35)   
    DRY(  1, 36)   DRY(  1, 37)   DRY(  1, 38)   DRY(  1, 39)   DRY(  1, 40)   
    DRY(  2,  1)   DRY(  2,  2)   DRY(  2,  3)   DRY(  2,  4)   DRY(  2,  5)   
    DRY(  2,  6)   DRY(  2,  7)   DRY(  2,  8)   DRY(  2,  9)   DRY(  2, 10)   
    DRY(  2, 11)   DRY(  2, 12)   DRY(  2, 13)   DRY(  2, 14)   DRY(  2, 15)   
    DRY(  2, 16)   DRY(  2, 17)   DRY(  2, 18)   DRY(  2, 19)   DRY(  2, 20)   
    DRY(  2, 21)   DRY(  2, 22)   DRY(  2, 23)   DRY(  2, 24)   DRY(  2, 25)   
    DRY(  2, 26)   DRY(  2, 27)   DRY(  2, 28)   DRY(  2, 29)   DRY(  2, 30)   
    DRY(  2, 31)   DRY(  2, 32)   DRY(  2, 33)   DRY(  2, 34)   DRY(  2, 35)   
    DRY(  2, 36)   DRY(  2, 37)   DRY(  2, 38)   DRY(  2, 39)   DRY(  2, 40)   
    DRY(  3,  1)   DRY(  3,  2)   DRY(  3,  3)   DRY(  3,  4)   DRY(  3,  5)   
    DRY(  3,  6)   DRY(  3,  7)   DRY(  3,  8)   DRY(  3,  9)   DRY(  3, 10)   
    DRY(  3, 11)   DRY(  3, 12)   DRY(  3, 13)   DRY(  3, 14)   DRY(  3, 15)   
    DRY(  3, 16)   DRY(  3, 17)   DRY(  3, 18)   DRY(  3, 19)   DRY(  3, 20)   
    DRY(  3, 21)   DRY(  3, 22)   DRY(  3, 23)   DRY(  3, 24)   DRY(  3, 25)   
    DRY(  3, 26)   DRY(  3, 27)   DRY(  3, 28)   DRY(  3, 29)   DRY(  3, 30)   
    DRY(  3, 31)   DRY(  3, 32)   DRY(  3, 33)   DRY(  3, 34)   DRY(  3, 35)   
    DRY(  3, 36)   DRY(  3, 37)   DRY(  3, 38)   DRY(  3, 39)   DRY(  3, 40)   
    DRY(  4,  1)   DRY(  4,  2)   DRY(  4,  3)   DRY(  4,  4)   DRY(  4,  5)   
    DRY(  4,  6)   DRY(  4,  7)   DRY(  4,  8)   DRY(  4,  9)   DRY(  4, 10)   
    DRY(  4, 11)   DRY(  4, 12)   DRY(  4, 13)   DRY(  4, 14)   DRY(  4, 15)   
    DRY(  4, 16)   DRY(  4, 17)   DRY(  4, 18)   DRY(  4, 19)   DRY(  4, 20)   
    DRY(  4, 21)   DRY(  4, 22)   DRY(  4, 23)   DRY(  4, 24)   DRY(  4, 25)   
    DRY(  4, 26)   DRY(  4, 27)   DRY(  4, 28)   DRY(  4, 29)   DRY(  4, 30)   
    DRY(  4, 31)   DRY(  4, 32)   DRY(  4, 33)   DRY(  4, 34)   DRY(  4, 35)   
    DRY(  4, 36)   DRY(  4, 37)   DRY(  4, 38)   DRY(  4, 39)   DRY(  4, 40)   
    DRY(  5,  1)   DRY(  5,  2)   DRY(  5,  3)   DRY(  5,  4)   DRY(  5,  5)   
    DRY(  5,  6)   DRY(  5,  7)   DRY(  5,  8)   DRY(  5,  9)   DRY(  5, 10)   
    DRY(  5, 11)   DRY(  5, 12)   DRY(  5, 13)   DRY(  5, 14)   DRY(  5, 15)   
    DRY(  5, 16)   DRY(  5, 17)   DRY(  5, 18)   DRY(  5, 19)   DRY(  5, 20)   
    DRY(  5, 21)   DRY(  5, 22)   DRY(  5, 23)   DRY(  5, 24)   DRY(  5, 25)   
    DRY(  5, 26)   DRY(  5, 27)   DRY(  5, 28)   DRY(  5, 29)   DRY(  5, 30)   
    DRY(  5, 31)   DRY(  5, 32)   DRY(  5, 33)   DRY(  5, 34)   DRY(  5, 35)   
    DRY(  5, 36)   DRY(  5, 37)   DRY(  5, 38)   DRY(  5, 39)   DRY(  5, 40)   
    DRY(  6,  1)   DRY(  6,  2)   DRY(  6,  3)   DRY(  6,  4)   DRY(  6,  5)   
    DRY(  6,  6)   DRY(  6,  7)   DRY(  6,  8)   DRY(  6,  9)   DRY(  6, 10)   
    DRY(  6, 11)   DRY(  6, 12)   DRY(  6, 13)   DRY(  6, 14)   DRY(  6, 15)   
    DRY(  6, 16)   DRY(  6, 17)   DRY(  6, 18)   DRY(  6, 19)   DRY(  6, 20)   
    DRY(  6, 21)   DRY(  6, 22)   DRY(  6, 23)   DRY(  6, 24)   DRY(  6, 25)   
    DRY(  6, 26)   DRY(  6, 27)   DRY(  6, 28)   DRY(  6, 29)   DRY(  6, 30)   
    DRY(  6, 31)   DRY(  6, 32)   DRY(  6, 33)   DRY(  6, 34)   DRY(  6, 35)   
    DRY(  6, 36)   DRY(  6, 37)   DRY(  6, 38)   DRY(  6, 39)   DRY(  6, 40)   
    DRY(  7,  1)   DRY(  7,  2)   DRY(  7,  3)   DRY(  7,  4)   DRY(  7,  5)   
    DRY(  7,  6)   DRY(  7,  7)   DRY(  7,  8)   DRY(  7,  9)   DRY(  7, 10)   
    DRY(  7, 11)   DRY(  7, 12)   DRY(  7, 13)   DRY(  7, 14)   DRY(  7, 15)   
    DRY(  7, 16)   DRY(  7, 17)   DRY(  7, 18)   DRY(  7, 19)   DRY(  7, 20)   
    DRY(  7, 21)   DRY(  7, 22)   DRY(  7, 23)   DRY(  7, 24)   DRY(  7, 25)   
    DRY(  7, 26)   DRY(  7, 27)   DRY(  7, 28)   DRY(  7, 29)   DRY(  7, 30)   
    DRY(  7, 31)   DRY(  7, 32)   DRY(  7, 33)   DRY(  7, 34)   DRY(  7, 35)   
    DRY(  7, 36)   DRY(  7, 37)   DRY(  7, 38)   DRY(  7, 39)   DRY(  7, 40)   
    DRY(  8,  1)   DRY(  8,  2)   DRY(  8,  3)   DRY(  8,  4)   DRY(  8,  5)   
    DRY(  8,  6)   DRY(  8,  7)   DRY(  8,  8)   DRY(  8,  9)   DRY(  8, 10)   
    DRY(  8, 11)   DRY(  8, 12)   DRY(  8, 13)   DRY(  8, 14)   DRY(  8, 15)   
    DRY(  8, 16)   DRY(  8, 17)   DRY(  8, 18)   DRY(  8, 19)   DRY(  8, 20)   
    DRY(  8, 21)   DRY(  8, 22)   DRY(  8, 23)   DRY(  8, 24)   DRY(  8, 25)   
    DRY(  8, 26)   DRY(  8, 27)   DRY(  8, 28)   DRY(  8, 29)   DRY(  8, 30)   
    DRY(  8, 31)   DRY(  8, 32)   DRY(  8, 33)   DRY(  8, 34)   DRY(  8, 35)   
    DRY(  8, 36)   DRY(  8, 37)   DRY(  8, 38)   DRY(  8, 39)   DRY(  8, 40)   
    DRY(  9,  1)   DRY(  9,  2)   DRY(  9,  3)   DRY(  9,  4)   DRY(  9,  5)   
    DRY(  9,  6)   DRY(  9,  7)   DRY(  9,  8)   DRY(  9,  9)   DRY(  9, 10)   
    DRY(  9, 11)   DRY(  9, 12)   DRY(  9, 13)   DRY(  9, 14)   DRY(  9, 15)   
    DRY(  9, 16)   DRY(  9, 17)   DRY(  9, 18)   DRY(  9, 19)   DRY(  9, 20)   
    DRY(  9, 21)   DRY(  9, 22)   DRY(  9, 23)   DRY(  9, 24)   DRY(  9, 25)   
    DRY(  9, 26)   DRY(  9, 27)   DRY(  9, 28)   DRY(  9, 29)   DRY(  9, 30)   
    DRY(  9, 31)   DRY(  9, 32)   DRY(  9, 33)   DRY(  9, 34)   DRY(  9, 35)   
    DRY(  9, 36)   DRY(  9, 37)   DRY(  9, 38)   DRY(  9, 39)   DRY(  9, 40)   
    DRY( 10,  1)   DRY( 10,  2)   DRY( 10,  3)   DRY( 10,  4)   DRY( 10,  5)   
    DRY( 10,  6)   DRY( 10,  7)   DRY( 10,  8)   DRY( 10,  9)   DRY( 10, 10)   
    DRY( 10, 11)   DRY( 10, 12)   DRY( 10, 13)   DRY( 10, 14)   DRY( 10, 15)   
    DRY( 10, 16)   DRY( 10, 17)   DRY( 10, 18)   DRY( 10, 19)   DRY( 10, 20)   
    DRY( 10, 21)   DRY( 10, 22)   DRY( 10, 23)   DRY( 10, 24)   DRY( 10, 25)   
    DRY( 10, 26)   DRY( 10, 27)   DRY( 10, 28)   DRY( 10, 29)   DRY( 10, 30)   
    DRY( 10, 31)   DRY( 10, 32)   DRY( 10, 33)   DRY( 10, 34)   DRY( 10, 35)   
    DRY( 10, 36)   DRY( 10, 37)   DRY( 10, 38)   DRY( 10, 39)   DRY( 10, 40)   
    DRY( 11,  1)   DRY( 11,  2)   DRY( 11,  3)   DRY( 11,  4)   DRY( 11,  5)   
    DRY( 11,  6)   DRY( 11,  7)   DRY( 11,  8)   DRY( 11,  9)   DRY( 11, 10)   
    DRY( 11, 11)   DRY( 11, 12)   DRY( 11, 13)   DRY( 11, 14)   DRY( 11, 15)   
    DRY( 11, 16)   DRY( 11, 17)   DRY( 11, 18)   DRY( 11, 19)   DRY( 11, 20)   
    DRY( 11, 21)   DRY( 11, 22)   DRY( 11, 23)   DRY( 11, 24)   DRY( 11, 25)   
    DRY( 11, 26)   DRY( 11, 27)   DRY( 11, 28)   DRY( 11, 29)   DRY( 11, 30)   
    DRY( 11, 31)   DRY( 11, 32)   DRY( 11, 33)   DRY( 11, 34)   DRY( 11, 35)   
    DRY( 11, 36)   DRY( 11, 37)   DRY( 11, 38)   DRY( 11, 39)   DRY( 11, 40)   
    DRY( 12,  1)   DRY( 12,  2)   DRY( 12,  3)   DRY( 12,  4)   DRY( 12,  5)   
    DRY( 12,  6)   DRY( 12,  7)   DRY( 12,  8)   DRY( 12,  9)   DRY( 12, 10)   
    DRY( 12, 11)   DRY( 12, 12)   DRY( 12, 13)   DRY( 12, 14)   DRY( 12, 15)   
    DRY( 12, 16)   DRY( 12, 17)   DRY( 12, 18)   DRY( 12, 19)   DRY( 12, 20)   
    DRY( 12, 21)   DRY( 12, 22)   DRY( 12, 23)   DRY( 12, 24)   DRY( 12, 25)   
    DRY( 12, 26)   DRY( 12, 27)   DRY( 12, 28)   DRY( 12, 29)   DRY( 12, 30)   
    DRY( 12, 31)   DRY( 12, 32)   DRY( 12, 33)   DRY( 12, 34)   DRY( 12, 35)   
    DRY( 12, 36)   DRY( 12, 37)   DRY( 12, 38)   DRY( 12, 39)   DRY( 12, 40)   
    DRY( 13,  1)   DRY( 13,  2)   DRY( 13,  3)   DRY( 13,  4)   DRY( 13,  5)   
    DRY( 13,  6)   DRY( 13,  7)   DRY( 13,  8)   DRY( 13,  9)   DRY( 13, 10)   
    DRY( 13, 11)   DRY( 13, 12)   DRY( 13, 13)   DRY( 13, 14)   DRY( 13, 15)   
    DRY( 13, 16)   DRY( 13, 17)   DRY( 13, 18)   DRY( 13, 19)   DRY( 13, 20)   
    DRY( 13, 21)   DRY( 13, 22)   DRY( 13, 23)   DRY( 13, 24)   DRY( 13, 25)   
    DRY( 13, 26)   DRY( 13, 27)   DRY( 13, 28)   DRY( 13, 29)   DRY( 13, 30)   
    DRY( 13, 31)   DRY( 13, 32)   DRY( 13, 33)   DRY( 13, 34)   DRY( 13, 35)   
    DRY( 13, 36)   DRY( 13, 37)   DRY( 13, 38)   DRY( 13, 39)   DRY( 13, 40)   
    DRY( 14,  1)   DRY( 14,  2)   DRY( 14,  3)   DRY( 14,  4)   DRY( 14,  5)   
    DRY( 14,  6)   DRY( 14,  7)   DRY( 14,  8)   DRY( 14,  9)   DRY( 14, 10)   
    DRY( 14, 11)   DRY( 14, 12)   DRY( 14, 13)   DRY( 14, 14)   DRY( 14, 15)   
    DRY( 14, 16)   DRY( 14, 17)   DRY( 14, 18)   DRY( 14, 19)   DRY( 14, 20)   
    DRY( 14, 21)   DRY( 14, 22)   DRY( 14, 23)   DRY( 14, 24)   DRY( 14, 25)   
    DRY( 14, 26)   DRY( 14, 27)   DRY( 14, 28)   DRY( 14, 29)   DRY( 14, 30)   
    DRY( 14, 31)   DRY( 14, 32)   DRY( 14, 33)   DRY( 14, 34)   DRY( 14, 35)   
    DRY( 14, 36)   DRY( 14, 37)   DRY( 14, 38)   DRY( 14, 39)   DRY( 14, 40)   
    DRY( 15,  1)   DRY( 15,  2)   DRY( 15,  3)   DRY( 15,  4)   DRY( 15,  5)   
    DRY( 15,  6)   DRY( 15,  7)   DRY( 15,  8)   DRY( 15,  9)   DRY( 15, 10)   
    DRY( 15, 11)   DRY( 15, 12)   DRY( 15, 13)   DRY( 15, 14)   DRY( 15, 15)   
    DRY( 15, 16)   DRY( 15, 17)   DRY( 15, 18)   DRY( 15, 19)   DRY( 15, 20)   
    DRY( 15, 21)   DRY( 15, 22)   DRY( 15, 23)   DRY( 15, 24)   DRY( 15, 25)   
    DRY( 15, 26)   DRY( 15, 27)   DRY( 15, 28)   DRY( 15, 29)   DRY( 15, 30)   
    DRY( 15, 31)   DRY( 15, 32)   DRY( 15, 33)   DRY( 15, 34)   DRY( 15, 35)   
    DRY( 15, 36)   DRY( 15, 37)   DRY( 15, 38)   DRY( 15, 39)   DRY( 15, 40)   
    DRY( 16,  1)   DRY( 16,  2)   DRY( 16,  3)   DRY( 16,  4)   DRY( 16,  5)   
    DRY( 16,  6)   DRY( 16,  7)   DRY( 16,  8)   DRY( 16,  9)   DRY( 16, 10)   
    DRY( 16, 11)   DRY( 16, 12)   DRY( 16, 13)   DRY( 16, 14)   DRY( 16, 15)   
    DRY( 16, 16)   DRY( 16, 17)   DRY( 16, 18)   DRY( 16, 19)   DRY( 16, 20)   
    DRY( 16, 21)   DRY( 16, 22)   DRY( 16, 23)   DRY( 16, 24)   DRY( 16, 25)   
    DRY( 16, 26)   DRY( 16, 27)   DRY( 16, 28)   DRY( 16, 29)   DRY( 16, 30)   
    DRY( 16, 31)   DRY( 16, 32)   DRY( 16, 33)   DRY( 16, 34)   DRY( 16, 35)   
    DRY( 16, 36)   DRY( 16, 37)   DRY( 16, 38)   DRY( 16, 39)   DRY( 16, 40)   
    DRY( 17,  1)   DRY( 17,  2)   DRY( 17,  3)   DRY( 17,  4)   DRY( 17,  5)   
    DRY( 17,  6)   DRY( 17,  7)   DRY( 17,  8)   DRY( 17,  9)   DRY( 17, 10)   
    DRY( 17, 11)   DRY( 17, 12)   DRY( 17, 13)   DRY( 17, 14)   DRY( 17, 15)   
    DRY( 17, 16)   DRY( 17, 17)   DRY( 17, 18)   DRY( 17, 19)   DRY( 17, 20)   
    DRY( 17, 21)   DRY( 17, 22)   DRY( 17, 23)   DRY( 17, 24)   DRY( 17, 25)   
    DRY( 17, 26)   DRY( 17, 27)   DRY( 17, 28)   DRY( 17, 29)   DRY( 17, 30)   
    DRY( 17, 31)   DRY( 17, 32)   DRY( 17, 33)   DRY( 17, 34)   DRY( 17, 35)   
    DRY( 17, 36)   DRY( 17, 37)   DRY( 17, 38)   DRY( 17, 39)   DRY( 17, 40)   
    DRY( 18,  1)   DRY( 18,  2)   DRY( 18,  3)   DRY( 18,  4)   DRY( 18,  5)   
    DRY( 18,  6)   DRY( 18,  7)   DRY( 18,  8)   DRY( 18,  9)   DRY( 18, 10)   
    DRY( 18, 11)   DRY( 18, 12)   DRY( 18, 13)   DRY( 18, 14)   DRY( 18, 15)   
    DRY( 18, 16)   DRY( 18, 17)   DRY( 18, 18)   DRY( 18, 19)   DRY( 18, 20)   
    DRY( 18, 21)   DRY( 18, 22)   DRY( 18, 23)   DRY( 18, 24)   DRY( 18, 25)   
    DRY( 18, 26)   DRY( 18, 27)   DRY( 18, 28)   DRY( 18, 29)   DRY( 18, 30)   
    DRY( 18, 31)   DRY( 18, 32)   DRY( 18, 33)   DRY( 18, 34)   DRY( 18, 35)   
    DRY( 18, 36)   DRY( 18, 37)   DRY( 18, 38)   DRY( 18, 39)   DRY( 18, 40)   
    DRY( 19,  1)   DRY( 19,  2)   DRY( 19,  3)   DRY( 19,  4)   DRY( 19,  5)   
    DRY( 19,  6)   DRY( 19,  7)   DRY( 19,  8)   DRY( 19,  9)   DRY( 19, 10)   
    DRY( 19, 11)   DRY( 19, 12)   DRY( 19, 13)   DRY( 19, 14)   DRY( 19, 15)   
    DRY( 19, 16)   DRY( 19, 17)   DRY( 19, 18)   DRY( 19, 19)   DRY( 19, 20)   
    DRY( 19, 21)   DRY( 19, 22)   DRY( 19, 23)   DRY( 19, 24)   DRY( 19, 25)   
    DRY( 19, 26)   DRY( 19, 27)   DRY( 19, 28)   DRY( 19, 29)   DRY( 19, 30)   
    DRY( 19, 31)   DRY( 19, 32)   DRY( 19, 33)   DRY( 19, 34)   DRY( 19, 35)   
    DRY( 19, 36)   DRY( 19, 37)   DRY( 19, 38)   DRY( 19, 39)   DRY( 19, 40)   
    DRY( 20,  1)   DRY( 20,  2)   DRY( 20,  3)   DRY( 20,  4)   DRY( 20,  5)   
    DRY( 20,  6)   DRY( 20,  7)   DRY( 20,  8)   DRY( 20,  9)   DRY( 20, 10)   
    DRY( 20, 11)   DRY( 20, 12)   DRY( 20, 13)   DRY( 20, 14)   DRY( 20, 15)   
    DRY( 20, 16)   DRY( 20, 17)   DRY( 20, 18)   DRY( 20, 19)   DRY( 20, 20)   
    DRY( 20, 21)   DRY( 20, 22)   DRY( 20, 23)   DRY( 20, 24)   DRY( 20, 25)   
    DRY( 20, 26)   DRY( 20, 27)   DRY( 20, 28)   DRY( 20, 29)   DRY( 20, 30)   
    DRY( 20, 31)   DRY( 20, 32)   DRY( 20, 33)   DRY( 20, 34)   DRY( 20, 35)   
    DRY( 20, 36)   DRY( 20, 37)   DRY( 20, 38)   DRY( 20, 39)   DRY( 20, 40)   
    DRY( 21,  1)   DRY( 21,  2)   DRY( 21,  3)   DRY( 21,  4)   DRY( 21,  5)   
    DRY( 21,  6)   DRY( 21,  7)   DRY( 21,  8)   DRY( 21,  9)   DRY( 21, 10)   
    DRY( 21, 11)   DRY( 21, 12)   DRY( 21, 13)   DRY( 21, 14)   DRY( 21, 15)   
    DRY( 21, 16)   DRY( 21, 17)   DRY( 21, 18)   DRY( 21, 19)   DRY( 21, 20)   
    DRY( 21, 21)   DRY( 21, 22)   DRY( 21, 23)   DRY( 21, 24)   DRY( 21, 25)   
    DRY( 21, 26)   DRY( 21, 27)   DRY( 21, 28)   DRY( 21, 29)   DRY( 21, 30)   
    DRY( 21, 31)   DRY( 21, 32)   DRY( 21, 33)   DRY( 21, 34)   DRY( 21, 35)   
    DRY( 21, 36)   DRY( 21, 37)   DRY( 21, 38)   DRY( 21, 39)   DRY( 21, 40)   
    DRY( 22,  1)   DRY( 22,  2)   DRY( 22,  3)   DRY( 22,  4)   DRY( 22,  5)   
    DRY( 22,  6)   DRY( 22,  7)   DRY( 22,  8)   DRY( 22,  9)   DRY( 22, 10)   
    DRY( 22, 11)   DRY( 22, 12)   DRY( 22, 13)   DRY( 22, 14)   DRY( 22, 15)   
    DRY( 22, 16)   DRY( 22, 17)   DRY( 22, 18)   DRY( 22, 19)   DRY( 22, 20)   
    DRY( 22, 21)   DRY( 22, 22)   DRY( 22, 23)   DRY( 22, 24)   DRY( 22, 25)   
    DRY( 22, 26)   DRY( 22, 27)   DRY( 22, 28)   DRY( 22, 29)   DRY( 22, 30)   
    DRY( 22, 31)   DRY( 22, 32)   DRY( 22, 33)   DRY( 22, 34)   DRY( 22, 35)   
    DRY( 22, 36)   DRY( 22, 37)   DRY( 22, 38)   DRY( 22, 39)   DRY( 22, 40)   
    DRY( 23,  1)   DRY( 23,  2)   DRY( 23,  3)   DRY( 23,  4)   DRY( 23,  5)   
    DRY( 23,  6)   DRY( 23,  7)   DRY( 23,  8)   DRY( 23,  9)   DRY( 23, 10)   
    DRY( 23, 11)   DRY( 23, 12)   DRY( 23, 13)   DRY( 23, 14)   DRY( 23, 15)   
    DRY( 23, 16)   DRY( 23, 17)   DRY( 23, 18)   DRY( 23, 19)   DRY( 23, 20)   
    DRY( 23, 21)   DRY( 23, 22)   DRY( 23, 23)   DRY( 23, 24)   DRY( 23, 25)   
    DRY( 23, 26)   DRY( 23, 27)   DRY( 23, 28)   DRY( 23, 29)   DRY( 23, 30)   
    DRY( 23, 31)   DRY( 23, 32)   DRY( 23, 33)   DRY( 23, 34)   DRY( 23, 35)   
    DRY( 23, 36)   DRY( 23, 37)   DRY( 23, 38)   DRY( 23, 39)   DRY( 23, 40)   
    DRY( 24,  1)   DRY( 24,  2)   DRY( 24,  3)   DRY( 24,  4)   DRY( 24,  5)   
    DRY( 24,  6)   DRY( 24,  7)   DRY( 24,  8)   DRY( 24,  9)   DRY( 24, 10)   
    DRY( 24, 11)   DRY( 24, 12)   DRY( 24, 13)   DRY( 24, 14)   DRY( 24, 15)   
    DRY( 24, 16)   DRY( 24, 17)   DRY( 24, 18)   DRY( 24, 19)   DRY( 24, 20)   
    DRY( 24, 21)   DRY( 24, 22)   DRY( 24, 23)   DRY( 24, 24)   DRY( 24, 25)   
    DRY( 24, 26)   DRY( 24, 27)   DRY( 24, 28)   DRY( 24, 29)   DRY( 24, 30)   
    DRY( 24, 31)   DRY( 24, 32)   DRY( 24, 33)   DRY( 24, 34)   DRY( 24, 35)   
    DRY( 24, 36)   DRY( 24, 37)   DRY( 24, 38)   DRY( 24, 39)   DRY( 24, 40)   
    DRY( 25,  1)   DRY( 25,  2)   DRY( 25,  3)   DRY( 25,  4)   DRY( 25,  5)   
    DRY( 25,  6)   DRY( 25,  7)   DRY( 25,  8)   DRY( 25,  9)   DRY( 25, 10)   
    DRY( 25, 11)   DRY( 25, 12)   DRY( 25, 13)   DRY( 25, 14)   DRY( 25, 15)   
    DRY( 25, 16)   DRY( 25, 17)   DRY( 25, 18)   DRY( 25, 19)   DRY( 25, 20)   
    DRY( 25, 21)   DRY( 25, 22)   DRY( 25, 23)   DRY( 25, 24)   DRY( 25, 25)   
    DRY( 25, 26)   DRY( 25, 27)   DRY( 25, 28)   DRY( 25, 29)   DRY( 25, 30)   
    DRY( 25, 31)   DRY( 25, 32)   DRY( 25, 33)   DRY( 25, 34)   DRY( 25, 35)   
    DRY( 25, 36)   DRY( 25, 37)   DRY( 25, 38)   DRY( 25, 39)   DRY( 25, 40)   
    DRY( 26,  1)   DRY( 26,  2)   DRY( 26,  3)   DRY( 26,  4)   DRY( 26,  5)   
    DRY( 26,  6)   DRY( 26,  7)   DRY( 26,  8)   DRY( 26,  9)   DRY( 26, 10)   
    DRY( 26, 11)   DRY( 26, 12)   DRY( 26, 13)   DRY( 26, 14)   DRY( 26, 15)   
    DRY( 26, 16)   DRY( 26, 17)   DRY( 26, 18)   DRY( 26, 19)   DRY( 26, 20)   
    DRY( 26, 21)   DRY( 26, 22)   DRY( 26, 23)   DRY( 26, 24)   DRY( 26, 25)   
    DRY( 26, 26)   DRY( 26, 27)   DRY( 26, 28)   DRY( 26, 29)   DRY( 26, 30)   
    DRY( 26, 31)   DRY( 26, 32)   DRY( 26, 33)   DRY( 26, 34)   DRY( 26, 35)   
    DRY( 26, 36)   DRY( 26, 37)   DRY( 26, 38)   DRY( 26, 39)   DRY( 26, 40)   
    DRY( 27,  1)   DRY( 27,  2)   DRY( 27,  3)   DRY( 27,  4)   DRY( 27,  5)   
    DRY( 27,  6)   DRY( 27,  7)   DRY( 27,  8)   DRY( 27,  9)   DRY( 27, 10)   
    DRY( 27, 11)   DRY( 27, 12)   DRY( 27, 13)   DRY( 27, 14)   DRY( 27, 15)   
    DRY( 27, 16)   DRY( 27, 17)   DRY( 27, 18)   DRY( 27, 19)   DRY( 27, 20)   
    DRY( 27, 21)   DRY( 27, 22)   DRY( 27, 23)   DRY( 27, 24)   DRY( 27, 25)   
    DRY( 27, 26)   DRY( 27, 27)   DRY( 27, 28)   DRY( 27, 29)   DRY( 27, 30)   
    DRY( 27, 31)   DRY( 27, 32)   DRY( 27, 33)   DRY( 27, 34)   DRY( 27, 35)   
    DRY( 27, 36)   DRY( 27, 37)   DRY( 27, 38)   DRY( 27, 39)   DRY( 27, 40)   
    DRY( 28,  1)   DRY( 28,  2)   DRY( 28,  3)   DRY( 28,  4)   DRY( 28,  5)   
    DRY( 28,  6)   DRY( 28,  7)   DRY( 28,  8)   DRY( 28,  9)   DRY( 28, 10)   
    DRY( 28, 11)   DRY( 28, 12)   DRY( 28, 13)   DRY( 28, 14)   DRY( 28, 15)   
    DRY( 28, 16)   DRY( 28, 17)   DRY( 28, 18)   DRY( 28, 19)   DRY( 28, 20)   
    DRY( 28, 21)   DRY( 28, 22)   DRY( 28, 23)   DRY( 28, 24)   DRY( 28, 25)   
    DRY( 28, 26)   DRY( 28, 27)   DRY( 28, 28)   DRY( 28, 29)   DRY( 28, 30)   
    DRY( 28, 31)   DRY( 28, 32)   DRY( 28, 33)   DRY( 28, 34)   DRY( 28, 35)   
    DRY( 28, 36)   DRY( 28, 37)   DRY( 28, 38)   DRY( 28, 39)   DRY( 28, 40)   
    DRY( 29,  1)   DRY( 29,  2)   DRY( 29,  3)   DRY( 29,  4)   DRY( 29,  5)   
    DRY( 29,  6)   DRY( 29,  7)   DRY( 29,  8)   DRY( 29,  9)   DRY( 29, 10)   
    DRY( 29, 11)   DRY( 29, 12)   DRY( 29, 13)   DRY( 29, 14)   DRY( 29, 15)   
    DRY( 29, 16)   DRY( 29, 17)   DRY( 29, 18)   DRY( 29, 19)   DRY( 29, 20)   
    DRY( 29, 21)   DRY( 29, 22)   DRY( 29, 23)   DRY( 29, 24)   DRY( 29, 25)   
    DRY( 29, 26)   DRY( 29, 27)   DRY( 29, 28)   DRY( 29, 29)   DRY( 29, 30)   
    DRY( 29, 31)   DRY( 29, 32)   DRY( 29, 33)   DRY( 29, 34)   DRY( 29, 35)   
    DRY( 29, 36)   DRY( 29, 37)   DRY( 29, 38)   DRY( 29, 39)   DRY( 29, 40)   
    DRY( 30,  1)   DRY( 30,  2)   DRY( 30,  3)   DRY( 30,  4)   DRY( 30,  5)   
    DRY( 30,  6)   DRY( 30,  7)   DRY( 30,  8)   DRY( 30,  9)   DRY( 30, 10)   
    DRY( 30, 11)   DRY( 30, 12)   DRY( 30, 13)   DRY( 30, 14)   DRY( 30, 15)   
    DRY( 30, 16)   DRY( 30, 17)   DRY( 30, 18)   DRY( 30, 19)   DRY( 30, 20)   
    DRY( 30, 21)   DRY( 30, 22)   DRY( 30, 23)   DRY( 30, 24)   DRY( 30, 25)   
    DRY( 30, 26)   DRY( 30, 27)   DRY( 30, 28)   DRY( 30, 29)   DRY( 30, 30)   
    DRY( 30, 31)   DRY( 30, 32)   DRY( 30, 33)   DRY( 30, 34)   DRY( 30, 35)   
    DRY( 30, 36)   DRY( 30, 37)   DRY( 30, 38)   DRY( 30, 39)   DRY( 30, 40)   
    DRY( 31,  1)   DRY( 31,  2)   DRY( 31,  3)   DRY( 31,  4)   DRY( 31,  5)   
    DRY( 31,  6)   DRY( 31,  7)   DRY( 31,  8)   DRY( 31,  9)   DRY( 31, 10)   
    DRY( 31, 11)   DRY( 31, 12)   DRY( 31, 13)   DRY( 31, 14)   DRY( 31, 15)   
    DRY( 31, 16)   DRY( 31, 17)   DRY( 31, 18)   DRY( 31, 19)   DRY( 31, 20)   
    DRY( 31, 21)   DRY( 31, 22)   DRY( 31, 23)   DRY( 31, 24)   DRY( 31, 25)   
    DRY( 31, 26)   DRY( 31, 27)   DRY( 31, 28)   DRY( 31, 29)   DRY( 31, 30)   
    DRY( 31, 31)   DRY( 31, 32)   DRY( 31, 33)   DRY( 31, 34)   DRY( 31, 35)   
    DRY( 31, 36)   DRY( 31, 37)   DRY( 31, 38)   DRY( 31, 39)   DRY( 31, 40)   
    DRY( 32,  1)   DRY( 32,  2)   DRY( 32,  3)   DRY( 32,  4)   DRY( 32,  5)   
    DRY( 32,  6)   DRY( 32,  7)   DRY( 32,  8)   DRY( 32,  9)   DRY( 32, 10)   
    DRY( 32, 11)   DRY( 32, 12)   DRY( 32, 13)   DRY( 32, 14)   DRY( 32, 15)   
    DRY( 32, 16)   DRY( 32, 17)   DRY( 32, 18)   DRY( 32, 19)   DRY( 32, 20)   
    DRY( 32, 21)   DRY( 32, 22)   DRY( 32, 23)   DRY( 32, 24)   DRY( 32, 25)   
    DRY( 32, 26)   DRY( 32, 27)   DRY( 32, 28)   DRY( 32, 29)   DRY( 32, 30)   
    DRY( 32, 31)   DRY( 32, 32)   DRY( 32, 33)   DRY( 32, 34)   DRY( 32, 35)   
    DRY( 32, 36)   DRY( 32, 37)   DRY( 32, 38)   DRY( 32, 39)   DRY( 32, 40)   
    DRY( 33,  1)   DRY( 33,  2)   DRY( 33,  3)   DRY( 33,  4)   DRY( 33,  5)   
    DRY( 33,  6)   DRY( 33,  7)   DRY( 33,  8)   DRY( 33,  9)   DRY( 33, 10)   
    DRY( 33, 11)   DRY( 33, 12)   DRY( 33, 13)   DRY( 33, 14)   DRY( 33, 15)   
    DRY( 33, 16)   DRY( 33, 17)   DRY( 33, 18)   DRY( 33, 19)   DRY( 33, 20)   
    DRY( 33, 21)   DRY( 33, 22)   DRY( 33, 23)   DRY( 33, 24)   DRY( 33, 25)   
    DRY( 33, 26)   DRY( 33, 27)   DRY( 33, 28)   DRY( 33, 29)   DRY( 33, 30)   
    DRY( 33, 31)   DRY( 33, 32)   DRY( 33, 33)   DRY( 33, 34)   DRY( 33, 35)   
    DRY( 33, 36)   DRY( 33, 37)   DRY( 33, 38)   DRY( 33, 39)   DRY( 33, 40)   
    DRY( 34,  1)   DRY( 34,  2)   DRY( 34,  3)   DRY( 34,  4)   DRY( 34,  5)   
    DRY( 34,  6)   DRY( 34,  7)   DRY( 34,  8)   DRY( 34,  9)   DRY( 34, 10)   
    DRY( 34, 11)   DRY( 34, 12)   DRY( 34, 13)   DRY( 34, 14)   DRY( 34, 15)   
    DRY( 34, 16)   DRY( 34, 17)   DRY( 34, 18)   DRY( 34, 19)   DRY( 34, 20)   
    DRY( 34, 21)   DRY( 34, 22)   DRY( 34, 23)   DRY( 34, 24)   DRY( 34, 25)   
    DRY( 34, 26)   DRY( 34, 27)   DRY( 34, 28)   DRY( 34, 29)   DRY( 34, 30)   
    DRY( 34, 31)   DRY( 34, 32)   DRY( 34, 33)   DRY( 34, 34)   DRY( 34, 35)   
    DRY( 34, 36)   DRY( 34, 37)   DRY( 34, 38)   DRY( 34, 39)   DRY( 34, 40)   
    DRY( 35,  1)   DRY( 35,  2)   DRY( 35,  3)   DRY( 35,  4)   DRY( 35,  5)   
    DRY( 35,  6)   DRY( 35,  7)   DRY( 35,  8)   DRY( 35,  9)   DRY( 35, 10)   
    DRY( 35, 11)   DRY( 35, 12)   DRY( 35, 13)   DRY( 35, 14)   DRY( 35, 15)   
    DRY( 35, 16)   DRY( 35, 17)   DRY( 35, 18)   DRY( 35, 19)   DRY( 35, 20)   
    DRY( 35, 21)   DRY( 35, 22)   DRY( 35, 23)   DRY( 35, 24)   DRY( 35, 25)   
    DRY( 35, 26)   DRY( 35, 27)   DRY( 35, 28)   DRY( 35, 29)   DRY( 35, 30)   
    DRY( 35, 31)   DRY( 35, 32)   DRY( 35, 33)   DRY( 35, 34)   DRY( 35, 35)   
    DRY( 35, 36)   DRY( 35, 37)   DRY( 35, 38)   DRY( 35, 39)   DRY( 35, 40)   
    DRY( 36,  1)   DRY( 36,  2)   DRY( 36,  3)   DRY( 36,  4)   DRY( 36,  5)   
    DRY( 36,  6)   DRY( 36,  7)   DRY( 36,  8)   DRY( 36,  9)   DRY( 36, 10)   
    DRY( 36, 11)   DRY( 36, 12)   DRY( 36, 13)   DRY( 36, 14)   DRY( 36, 15)   
    DRY( 36, 16)   DRY( 36, 17)   DRY( 36, 18)   DRY( 36, 19)   DRY( 36, 20)   
    DRY( 36, 21)   DRY( 36, 22)   DRY( 36, 23)   DRY( 36, 24)   DRY( 36, 25)   
    DRY( 36, 26)   DRY( 36, 27)   DRY( 36, 28)   DRY( 36, 29)   DRY( 36, 30)   
    DRY( 36, 31)   DRY( 36, 32)   DRY( 36, 33)   DRY( 36, 34)   DRY( 36, 35)   
    DRY( 36, 36)   DRY( 36, 37)   DRY( 36, 38)   DRY( 36, 39)   DRY( 36, 40)   
    DRY( 37,  1)   DRY( 37,  2)   DRY( 37,  3)   DRY( 37,  4)   DRY( 37,  5)   
    DRY( 37,  6)   DRY( 37,  7)   DRY( 37,  8)   DRY( 37,  9)   DRY( 37, 10)   
    DRY( 37, 11)   DRY( 37, 12)   DRY( 37, 13)   DRY( 37, 14)   DRY( 37, 15)   
    DRY( 37, 16)   DRY( 37, 17)   DRY( 37, 18)   DRY( 37, 19)   DRY( 37, 20)   
    DRY( 37, 21)   DRY( 37, 22)   DRY( 37, 23)   DRY( 37, 24)   DRY( 37, 25)   
    DRY( 37, 26)   DRY( 37, 27)   DRY( 37, 28)   DRY( 37, 29)   DRY( 37, 30)   
    DRY( 37, 31)   DRY( 37, 32)   DRY( 37, 33)   DRY( 37, 34)   DRY( 37, 35)   
    DRY( 37, 36)   DRY( 37, 37)   DRY( 37, 38)   DRY( 37, 39)   DRY( 37, 40)   
    DRY( 38,  1)   DRY( 38,  2)   DRY( 38,  3)   DRY( 38,  4)   DRY( 38,  5)   
    DRY( 38,  6)   DRY( 38,  7)   DRY( 38,  8)   DRY( 38,  9)   DRY( 38, 10)   
    DRY( 38, 11)   DRY( 38, 12)   DRY( 38, 13)   DRY( 38, 14)   DRY( 38, 15)   
    DRY( 38, 16)   DRY( 38, 17)   DRY( 38, 18)   DRY( 38, 19)   DRY( 38, 20)   
    DRY( 38, 21)   DRY( 38, 22)   DRY( 38, 23)   DRY( 38, 24)   DRY( 38, 25)   
    DRY( 38, 26)   DRY( 38, 27)   DRY( 38, 28)   DRY( 38, 29)   DRY( 38, 30)   
    DRY( 38, 31)   DRY( 38, 32)   DRY( 38, 33)   DRY( 38, 34)   DRY( 38, 35)   
    DRY( 38, 36)   DRY( 38, 37)   DRY( 38, 38)   DRY( 38, 39)   DRY( 38, 40)   
    DRY( 39,  1)   DRY( 39,  2)   DRY( 39,  3)   DRY( 39,  4)   DRY( 39,  5)   
    DRY( 39,  6)   DRY( 39,  7)   DRY( 39,  8)   DRY( 39,  9)   DRY( 39, 10)   
    DRY( 39, 11)   DRY( 39, 12)   DRY( 39, 13)   DRY( 39, 14)   DRY( 39, 15)   
    DRY( 39, 16)   DRY( 39, 17)   DRY( 39, 18)   DRY( 39, 19)   DRY( 39, 20)   
    DRY( 39, 21)   DRY( 39, 22)   DRY( 39, 23)   DRY( 39, 24)   DRY( 39, 25)   
    DRY( 39, 26)   DRY( 39, 27)   DRY( 39, 28)   DRY( 39, 29)   DRY( 39, 30)   
    DRY( 39, 31)   DRY( 39, 32)   DRY( 39, 33)   DRY( 39, 34)   DRY( 39, 35)   
    DRY( 39, 36)   DRY( 39, 37)   DRY( 39, 38)   DRY( 39, 39)   DRY( 39, 40)   
    DRY( 40,  1)   DRY( 40,  2)   DRY( 40,  3)   DRY( 40,  4)   DRY( 40,  5)   
    DRY( 40,  6)   DRY( 40,  7)   DRY( 40,  8)   DRY( 40,  9)   DRY( 40, 10)   
    DRY( 40, 11)   DRY( 40, 12)   DRY( 40, 13)   DRY( 40, 14)   DRY( 40, 15)   
    DRY( 40, 16)   DRY( 40, 17)   DRY( 40, 18)   DRY( 40, 19)   DRY( 40, 20)   
    DRY( 40, 21)   DRY( 40, 22)   DRY( 40, 23)   DRY( 40, 24)   DRY( 40, 25)   
    DRY( 40, 26)   DRY( 40, 27)   DRY( 40, 28)   DRY( 40, 29)   DRY( 40, 30)   
    DRY( 40, 31)   DRY( 40, 32)   DRY( 40, 33)   DRY( 40, 34)   DRY( 40, 35)   
    DRY( 40, 36)   DRY( 40, 37)   DRY( 40, 38)   DRY( 40, 39)   DRY( 40, 40)   

 CELL CONVERSIONS FOR ITER.=  1  LAYER=  3  STEP=  1  PERIOD=   1   (ROW,COL)
    DRY(  1,  1)   DRY(  1,  2)   DRY(  1,  3)   DRY(  1,  4)   DRY(  1,  5)   
    DRY(  1,  6)   DRY(  1,  7)   DRY(  1,  8)   DRY(  1,  9)   DRY(  1, 10)   
    DRY(  1, 11)   DRY(  1, 12)   DRY(  1, 13)   DRY(  1, 14)   DRY(  1, 15)   
    DRY(  1, 16)   DRY(  1, 17)   DRY(  1, 18)   DRY(  1, 19)   DRY(  1, 20)   
    DRY(  1, 21)   DRY(  1, 22)   DRY(  1, 23)   DRY(  1, 24)   DRY(  1, 25)   
    DRY(  1, 26)   DRY(  1, 27)   DRY(  1, 28)   DRY(  1, 29)   DRY(  1, 30)   
    DRY(  1, 31)   DRY(  1, 32)   DRY(  1, 33)   DRY(  1, 34)   DRY(  1, 35)   
    DRY(  1, 36)   DRY(  1, 37)   DRY(  1, 38)   DRY(  1, 39)   DRY(  1, 40)   
    DRY(  2,  1)   DRY(  2,  2)   DRY(  2,  3)   DRY(  2,  4)   DRY(  2,  5)   
    DRY(  2,  6)   DRY(  2,  7)   DRY(  2,  8)   DRY(  2,  9)   DRY(  2, 10)   
    DRY(  2, 11)   DRY(  2, 12)   DRY(  2, 13)   DRY(  2, 14)   DRY(  2, 15)   
    DRY(  2, 16)   DRY(  2, 17)   DRY(  2, 18)   DRY(  2, 19)   DRY(  2, 20)   
    DRY(  2, 21)   DRY(  2, 22)   DRY(  2, 23)   DRY(  2, 24)   DRY(  2, 25)   
    DRY(  2, 26)   DRY(  2, 27)   DRY(  2, 28)   DRY(  2, 29)   DRY(  2, 30)   
    DRY(  2, 31)   DRY(  2, 32)   DRY(  2, 33)   DRY(  2, 34)   DRY(  2, 35)   
    DRY(  2, 36)   DRY(  2, 37)   DRY(  2, 38)   DRY(  2, 39)   DRY(  2, 40)   
    DRY(  3,  1)   DRY(  3,  2)   DRY(  3,  3)   DRY(  3,  4)   DRY(  3,  5)   
    DRY(  3,  6)   DRY(  3,  7)   DRY(  3,  8)   DRY(  3,  9)   DRY(  3, 10)   
    DRY(  3, 11)   DRY(  3, 12)   DRY(  3, 13)   DRY(  3, 14)   DRY(  3, 15)   
    DRY(  3, 16)   DRY(  3, 17)   DRY(  3, 18)   DRY(  3, 19)   DRY(  3, 20)   
    DRY(  3, 21)   DRY(  3, 22)   DRY(  3, 23)   DRY(  3, 24)   DRY(  3, 25)   
    DRY(  3, 26)   DRY(  3, 27)   DRY(  3, 28)   DRY(  3, 29)   DRY(  3, 30)   
    DRY(  3, 31)   DRY(  3, 32)   DRY(  3, 33)   DRY(  3, 34)   DRY(  3, 35)   
    DRY(  3, 36)   DRY(  3, 37)   DRY(  3, 38)   DRY(  3, 39)   DRY(  3, 40)   
    DRY(  4,  1)   DRY(  4,  2)   DRY(  4,  3)   DRY(  4,  4)   DRY(  4,  5)   
    DRY(  4,  6)   DRY(  4,  7)   DRY(  4,  8)   DRY(  4,  9)   DRY(  4, 10)   
    DRY(  4, 11)   DRY(  4, 12)   DRY(  4, 13)   DRY(  4, 14)   DRY(  4, 15)   
    DRY(  4, 16)   DRY(  4, 17)   DRY(  4, 18)   DRY(  4, 19)   DRY(  4, 20)   
    DRY(  4, 21)   DRY(  4, 22)   DRY(  4, 23)   DRY(  4, 24)   DRY(  4, 25)   
    DRY(  4, 26)   DRY(  4, 27)   DRY(  4, 28)   DRY(  4, 29)   DRY(  4, 30)   
    DRY(  4, 31)   DRY(  4, 32)   DRY(  4, 33)   DRY(  4, 34)   DRY(  4, 35)   
    DRY(  4, 36)   DRY(  4, 37)   DRY(  4, 38)   DRY(  4, 39)   DRY(  4, 40)   
    DRY(  5,  1)   DRY(  5,  2)   DRY(  5,  3)   DRY(  5,  4)   DRY(  5,  5)   
    DRY(  5,  6)   DRY(  5,  7)   DRY(  5,  8)   DRY(  5,  9)   DRY(  5, 10)   
    DRY(  5, 11)   DRY(  5, 12)   DRY(  5, 13)   DRY(  5, 14)   DRY(  5, 15)   
    DRY(  5, 16)   DRY(  5, 17)   DRY(  5, 18)   DRY(  5, 19)   DRY(  5, 20)   
    DRY(  5, 21)   DRY(  5, 22)   DRY(  5, 23)   DRY(  5, 24)   DRY(  5, 25)   
    DRY(  5, 26)   DRY(  5, 27)   DRY(  5, 28)   DRY(  5, 29)   DRY(  5, 30)   
    DRY(  5, 31)   DRY(  5, 32)   DRY(  5, 33)   DRY(  5, 34)   DRY(  5, 35)   
    DRY(  5, 36)   DRY(  5, 37)   DRY(  5, 38)   DRY(  5, 39)   DRY(  5, 40)   
    DRY(  6,  1)   DRY(  6,  2)   DRY(  6,  3)   DRY(  6,  4)   DRY(  6,  5)   
    DRY(  6,  6)   DRY(  6,  7)   DRY(  6,  8)   DRY(  6,  9)   DRY(  6, 10)   
    DRY(  6, 11)   DRY(  6, 12)   DRY(  6, 13)   DRY(  6, 14)   DRY(  6, 15)   
    DRY(  6, 16)   DRY(  6, 17)   DRY(  6, 18)   DRY(  6, 19)   DRY(  6, 20)   
    DRY(  6, 21)   DRY(  6, 22)   DRY(  6, 23)   DRY(  6, 24)   DRY(  6, 25)   
    DRY(  6, 26)   DRY(  6, 27)   DRY(  6, 28)   DRY(  6, 29)   DRY(  6, 30)   
    DRY(  6, 31)   DRY(  6, 32)   DRY(  6, 33)   DRY(  6, 34)   DRY(  6, 35)   
    DRY(  6, 36)   DRY(  6, 37)   DRY(  6, 38)   DRY(  6, 39)   DRY(  6, 40)   
    DRY(  7,  1)   DRY(  7,  2)   DRY(  7,  3)   DRY(  7,  4)   DRY(  7,  5)   
    DRY(  7,  6)   DRY(  7,  7)   DRY(  7,  8)   DRY(  7,  9)   DRY(  7, 10)   
    DRY(  7, 11)   DRY(  7, 12)   DRY(  7, 13)   DRY(  7, 14)   DRY(  7, 15)   
    DRY(  7, 16)   DRY(  7, 17)   DRY(  7, 18)   DRY(  7, 19)   DRY(  7, 20)   
    DRY(  7, 21)   DRY(  7, 22)   DRY(  7, 23)   DRY(  7, 24)   DRY(  7, 25)   
    DRY(  7, 26)   DRY(  7, 27)   DRY(  7, 28)   DRY(  7, 29)   DRY(  7, 30)   
    DRY(  7, 31)   DRY(  7, 32)   DRY(  7, 33)   DRY(  7, 34)   DRY(  7, 35)   
    DRY(  7, 36)   DRY(  7, 37)   DRY(  7, 38)   DRY(  7, 39)   DRY(  7, 40)   
    DRY(  8,  1)   DRY(  8,  2)   DRY(  8,  3)   DRY(  8,  4)   DRY(  8,  5)   
    DRY(  8,  6)   DRY(  8,  7)   DRY(  8,  8)   DRY(  8,  9)   DRY(  8, 10)   
    DRY(  8, 11)   DRY(  8, 12)   DRY(  8, 13)   DRY(  8, 14)   DRY(  8, 15)   
    DRY(  8, 16)   DRY(  8, 17)   DRY(  8, 18)   DRY(  8, 19)   DRY(  8, 20)   
    DRY(  8, 21)   DRY(  8, 22)   DRY(  8, 23)   DRY(  8, 24)   DRY(  8, 25)   
    DRY(  8, 26)   DRY(  8, 27)   DRY(  8, 28)   DRY(  8, 29)   DRY(  8, 30)   
    DRY(  8, 31)   DRY(  8, 32)   DRY(  8, 33)   DRY(  8, 34)   DRY(  8, 35)   
    DRY(  8, 36)   DRY(  8, 37)   DRY(  8, 38)   DRY(  8, 39)   DRY(  8, 40)   
    DRY(  9,  1)   DRY(  9,  2)   DRY(  9,  3)   DRY(  9,  4)   DRY(  9,  5)   
    DRY(  9,  6)   DRY(  9,  7)   DRY(  9,  8)   DRY(  9,  9)   DRY(  9, 10)   
    DRY(  9, 11)   DRY(  9, 12)   DRY(  9, 13)   DRY(  9, 14)   DRY(  9, 15)   
    DRY(  9, 16)   DRY(  9, 17)   DRY(  9, 18)   DRY(  9, 19)   DRY(  9, 20)   
    DRY(  9, 21)   DRY(  9, 22)   DRY(  9, 23)   DRY(  9, 24)   DRY(  9, 25)   
    DRY(  9, 26)   DRY(  9, 27)   DRY(  9, 28)   DRY(  9, 29)   DRY(  9, 30)   
    DRY(  9, 31)   DRY(  9, 32)   DRY(  9, 33)   DRY(  9, 34)   DRY(  9, 35)   
    DRY(  9, 36)   DRY(  9, 37)   DRY(  9, 38)   DRY(  9, 39)   DRY(  9, 40)   
    DRY( 10,  1)   DRY( 10,  2)   DRY( 10,  3)   DRY( 10,  4)   DRY( 10,  5)   
    DRY( 10,  6)   DRY( 10,  7)   DRY( 10,  8)   DRY( 10,  9)   DRY( 10, 10)   
    DRY( 10, 11)   DRY( 10, 12)   DRY( 10, 13)   DRY( 10, 14)   DRY( 10, 15)   
    DRY( 10, 16)   DRY( 10, 17)   DRY( 10, 18)   DRY( 10, 19)   DRY( 10, 20)   
    DRY( 10, 21)   DRY( 10, 22)   DRY( 10, 23)   DRY( 10, 24)   DRY( 10, 25)   
    DRY( 10, 26)   DRY( 10, 27)   DRY( 10, 28)   DRY( 10, 29)   DRY( 10, 30)   
    DRY( 10, 31)   DRY( 10, 32)   DRY( 10, 33)   DRY( 10, 34)   DRY( 10, 35)   
    DRY( 10, 36)   DRY( 10, 37)   DRY( 10, 38)   DRY( 10, 39)   DRY( 10, 40)   
    DRY( 11,  1)   DRY( 11,  2)   DRY( 11,  3)   DRY( 11,  4)   DRY( 11,  5)   
    DRY( 11,  6)   DRY( 11,  7)   DRY( 11,  8)   DRY( 11,  9)   DRY( 11, 10)   
    DRY( 11, 11)   DRY( 11, 12)   DRY( 11, 13)   DRY( 11, 14)   DRY( 11, 15)   
    DRY( 11, 16)   DRY( 11, 17)   DRY( 11, 18)   DRY( 11, 19)   DRY( 11, 20)   
    DRY( 11, 21)   DRY( 11, 22)   DRY( 11, 23)   DRY( 11, 24)   DRY( 11, 25)   
    DRY( 11, 26)   DRY( 11, 27)   DRY( 11, 28)   DRY( 11, 29)   DRY( 11, 30)   
    DRY( 11, 31)   DRY( 11, 32)   DRY( 11, 33)   DRY( 11, 34)   DRY( 11, 35)   
    DRY( 11, 36)   DRY( 11, 37)   DRY( 11, 38)   DRY( 11, 39)   DRY( 11, 40)   
    DRY( 12,  1)   DRY( 12,  2)   DRY( 12,  3)   DRY( 12,  4)   DRY( 12,  5)   
    DRY( 12,  6)   DRY( 12,  7)   DRY( 12,  8)   DRY( 12,  9)   DRY( 12, 10)   
    DRY( 12, 11)   DRY( 12, 12)   DRY( 12, 13)   DRY( 12, 14)   DRY( 12, 15)   
    DRY( 12, 16)   DRY( 12, 17)   DRY( 12, 18)   DRY( 12, 19)   DRY( 12, 20)   
    DRY( 12, 21)   DRY( 12, 22)   DRY( 12, 23)   DRY( 12, 24)   DRY( 12, 25)   
    DRY( 12, 26)   DRY( 12, 27)   DRY( 12, 28)   DRY( 12, 29)   DRY( 12, 30)   
    DRY( 12, 31)   DRY( 12, 32)   DRY( 12, 33)   DRY( 12, 34)   DRY( 12, 35)   
    DRY( 12, 36)   DRY( 12, 37)   DRY( 12, 38)   DRY( 12, 39)   DRY( 12, 40)   
    DRY( 13,  1)   DRY( 13,  2)   DRY( 13,  3)   DRY( 13,  4)   DRY( 13,  5)   
    DRY( 13,  6)   DRY( 13,  7)   DRY( 13,  8)   DRY( 13,  9)   DRY( 13, 10)   
    DRY( 13, 11)   DRY( 13, 12)   DRY( 13, 13)   DRY( 13, 14)   DRY( 13, 15)   
    DRY( 13, 16)   DRY( 13, 17)   DRY( 13, 18)   DRY( 13, 19)   DRY( 13, 20)   
    DRY( 13, 21)   DRY( 13, 22)   DRY( 13, 23)   DRY( 13, 24)   DRY( 13, 25)   
    DRY( 13, 26)   DRY( 13, 27)   DRY( 13, 28)   DRY( 13, 29)   DRY( 13, 30)   
    DRY( 13, 31)   DRY( 13, 32)   DRY( 13, 33)   DRY( 13, 34)   DRY( 13, 35)   
    DRY( 13, 36)   DRY( 13, 37)   DRY( 13, 38)   DRY( 13, 39)   DRY( 13, 40)   
    DRY( 14,  1)   DRY( 14,  2)   DRY( 14,  3)   DRY( 14,  4)   DRY( 14,  5)   
    DRY( 14,  6)   DRY( 14,  7)   DRY( 14,  8)   DRY( 14,  9)   DRY( 14, 10)   
    DRY( 14, 11)   DRY( 14, 12)   DRY( 14, 13)   DRY( 14, 14)   DRY( 14, 15)   
    DRY( 14, 16)   DRY( 14, 17)   DRY( 14, 18)   DRY( 14, 19)   DRY( 14, 20)   
    DRY( 14, 21)   DRY( 14, 22)   DRY( 14, 23)   DRY( 14, 24)   DRY( 14, 25)   
    DRY( 14, 26)   DRY( 14, 27)   DRY( 14, 28)   DRY( 14, 29)   DRY( 14, 30)   
    DRY( 14, 31)   DRY( 14, 32)   DRY( 14, 33)   DRY( 14, 34)   DRY( 14, 35)   
    DRY( 14, 36)   DRY( 14, 37)   DRY( 14, 38)   DRY( 14, 39)   DRY( 14, 40)   
    DRY( 15,  1)   DRY( 15,  2)   DRY( 15,  3)   DRY( 15,  4)   DRY( 15,  5)   
    DRY( 15,  6)   DRY( 15,  7)   DRY( 15,  8)   DRY( 15,  9)   DRY( 15, 10)   
    DRY( 15, 11)   DRY( 15, 12)   DRY( 15, 13)   DRY( 15, 14)   DRY( 15, 15)   
    DRY( 15, 16)   DRY( 15, 17)   DRY( 15, 18)   DRY( 15, 19)   DRY( 15, 20)   
    DRY( 15, 21)   DRY( 15, 22)   DRY( 15, 23)   DRY( 15, 24)   DRY( 15, 25)   
    DRY( 15, 26)   DRY( 15, 27)   DRY( 15, 28)   DRY( 15, 29)   DRY( 15, 30)   
    DRY( 15, 31)   DRY( 15, 32)   DRY( 15, 33)   DRY( 15, 34)   DRY( 15, 35)   
    DRY( 15, 36)   DRY( 15, 37)   DRY( 15, 38)   DRY( 15, 39)   DRY( 15, 40)   
    DRY( 16,  1)   DRY( 16,  2)   DRY( 16,  3)   DRY( 16,  4)   DRY( 16,  5)   
    DRY( 16,  6)   DRY( 16,  7)   DRY( 16,  8)   DRY( 16,  9)   DRY( 16, 10)   
    DRY( 16, 11)   DRY( 16, 12)   DRY( 16, 13)   DRY( 16, 14)   DRY( 16, 15)   
    DRY( 16, 16)   DRY( 16, 17)   DRY( 16, 18)   DRY( 16, 19)   DRY( 16, 20)   
    DRY( 16, 21)   DRY( 16, 22)   DRY( 16, 23)   DRY( 16, 24)   DRY( 16, 25)   
    DRY( 16, 26)   DRY( 16, 27)   DRY( 16, 28)   DRY( 16, 29)   DRY( 16, 30)   
    DRY( 16, 31)   DRY( 16, 32)   DRY( 16, 33)   DRY( 16, 34)   DRY( 16, 35)   
    DRY( 16, 36)   DRY( 16, 37)   DRY( 16, 38)   DRY( 16, 39)   DRY( 16, 40)   
    DRY( 17,  1)   DRY( 17,  2)   DRY( 17,  3)   DRY( 17,  4)   DRY( 17,  5)   
    DRY( 17,  6)   DRY( 17,  7)   DRY( 17,  8)   DRY( 17,  9)   DRY( 17, 10)   
    DRY( 17, 11)   DRY( 17, 12)   DRY( 17, 13)   DRY( 17, 14)   DRY( 17, 15)   
    DRY( 17, 16)   DRY( 17, 17)   DRY( 17, 18)   DRY( 17, 19)   DRY( 17, 20)   
    DRY( 17, 21)   DRY( 17, 22)   DRY( 17, 23)   DRY( 17, 24)   DRY( 17, 25)   
    DRY( 17, 26)   DRY( 17, 27)   DRY( 17, 28)   DRY( 17, 29)   DRY( 17, 30)   
    DRY( 17, 31)   DRY( 17, 32)   DRY( 17, 33)   DRY( 17, 34)   DRY( 17, 35)   
    DRY( 17, 36)   DRY( 17, 37)   DRY( 17, 38)   DRY( 17, 39)   DRY( 17, 40)   
    DRY( 18,  1)   DRY( 18,  2)   DRY( 18,  3)   DRY( 18,  4)   DRY( 18,  5)   
    DRY( 18,  6)   DRY( 18,  7)   DRY( 18,  8)   DRY( 18,  9)   DRY( 18, 10)   
    DRY( 18, 11)   DRY( 18, 12)   DRY( 18, 13)   DRY( 18, 14)   DRY( 18, 15)   
    DRY( 18, 16)   DRY( 18, 17)   DRY( 18, 18)   DRY( 18, 19)   DRY( 18, 20)   
    DRY( 18, 21)   DRY( 18, 22)   DRY( 18, 23)   DRY( 18, 24)   DRY( 18, 25)   
    DRY( 18, 26)   DRY( 18, 27)   DRY( 18, 28)   DRY( 18, 29)   DRY( 18, 30)   
    DRY( 18, 31)   DRY( 18, 32)   DRY( 18, 33)   DRY( 18, 34)   DRY( 18, 35)   
    DRY( 18, 36)   DRY( 18, 37)   DRY( 18, 38)   DRY( 18, 39)   DRY( 18, 40)   
    DRY( 19,  1)   DRY( 19,  2)   DRY( 19,  3)   DRY( 19,  4)   DRY( 19,  5)   
    DRY( 19,  6)   DRY( 19,  7)   DRY( 19,  8)   DRY( 19,  9)   DRY( 19, 10)   
    DRY( 19, 11)   DRY( 19, 12)   DRY( 19, 13)   DRY( 19, 14)   DRY( 19, 15)   
    DRY( 19, 16)   DRY( 19, 17)   DRY( 19, 18)   DRY( 19, 19)   DRY( 19, 20)   
    DRY( 19, 21)   DRY( 19, 22)   DRY( 19, 23)   DRY( 19, 24)   DRY( 19, 25)   
    DRY( 19, 26)   DRY( 19, 27)   DRY( 19, 28)   DRY( 19, 29)   DRY( 19, 30)   
    DRY( 19, 31)   DRY( 19, 32)   DRY( 19, 33)   DRY( 19, 34)   DRY( 19, 35)   
    DRY( 19, 36)   DRY( 19, 37)   DRY( 19, 38)   DRY( 19, 39)   DRY( 19, 40)   
    DRY( 20,  1)   DRY( 20,  2)   DRY( 20,  3)   DRY( 20,  4)   DRY( 20,  5)   
    DRY( 20,  6)   DRY( 20,  7)   DRY( 20,  8)   DRY( 20,  9)   DRY( 20, 10)   
    DRY( 20, 11)   DRY( 20, 12)   DRY( 20, 13)   DRY( 20, 14)   DRY( 20, 15)   
    DRY( 20, 16)   DRY( 20, 17)   DRY( 20, 18)   DRY( 20, 19)   DRY( 20, 20)   
    DRY( 20, 21)   DRY( 20, 22)   DRY( 20, 23)   DRY( 20, 24)   DRY( 20, 25)   
    DRY( 20, 26)   DRY( 20, 27)   DRY( 20, 28)   DRY( 20, 29)   DRY( 20, 30)   
    DRY( 20, 31)   DRY( 20, 32)   DRY( 20, 33)   DRY( 20, 34)   DRY( 20, 35)   
    DRY( 20, 36)   DRY( 20, 37)   DRY( 20, 38)   DRY( 20, 39)   DRY( 20, 40)   
    DRY( 21,  1)   DRY( 21,  2)   DRY( 21,  3)   DRY( 21,  4)   DRY( 21,  5)   
    DRY( 21,  6)   DRY( 21,  7)   DRY( 21,  8)   DRY( 21,  9)   DRY( 21, 10)   
    DRY( 21, 11)   DRY( 21, 12)   DRY( 21, 13)   DRY( 21, 14)   DRY( 21, 15)   
    DRY( 21, 16)   DRY( 21, 17)   DRY( 21, 18)   DRY( 21, 19)   DRY( 21, 20)   
    DRY( 21, 21)   DRY( 21, 22)   DRY( 21, 23)   DRY( 21, 24)   DRY( 21, 25)   
    DRY( 21, 26)   DRY( 21, 27)   DRY( 21, 28)   DRY( 21, 29)   DRY( 21, 30)   
    DRY( 21, 31)   DRY( 21, 32)   DRY( 21, 33)   DRY( 21, 34)   DRY( 21, 35)   
    DRY( 21, 36)   DRY( 21, 37)   DRY( 21, 38)   DRY( 21, 39)   DRY( 21, 40)   
    DRY( 22,  1)   DRY( 22,  2)   DRY( 22,  3)   DRY( 22,  4)   DRY( 22,  5)   
    DRY( 22,  6)   DRY( 22,  7)   DRY( 22,  8)   DRY( 22,  9)   DRY( 22, 10)   
    DRY( 22, 11)   DRY( 22, 12)   DRY( 22, 13)   DRY( 22, 14)   DRY( 22, 15)   
    DRY( 22, 16)   DRY( 22, 17)   DRY( 22, 18)   DRY( 22, 19)   DRY( 22, 20)   
    DRY( 22, 21)   DRY( 22, 22)   DRY( 22, 23)   DRY( 22, 24)   DRY( 22, 25)   
    DRY( 22, 26)   DRY( 22, 27)   DRY( 22, 28)   DRY( 22, 29)   DRY( 22, 30)   
    DRY( 22, 31)   DRY( 22, 32)   DRY( 22, 33)   DRY( 22, 34)   DRY( 22, 35)   
    DRY( 22, 36)   DRY( 22, 37)   DRY( 22, 38)   DRY( 22, 39)   DRY( 22, 40)   
    DRY( 23,  1)   DRY( 23,  2)   DRY( 23,  3)   DRY( 23,  4)   DRY( 23,  5)   
    DRY( 23,  6)   DRY( 23,  7)   DRY( 23,  8)   DRY( 23,  9)   DRY( 23, 10)   
    DRY( 23, 11)   DRY( 23, 12)   DRY( 23, 13)   DRY( 23, 14)   DRY( 23, 15)   
    DRY( 23, 16)   DRY( 23, 17)   DRY( 23, 18)   DRY( 23, 19)   DRY( 23, 20)   
    DRY( 23, 21)   DRY( 23, 22)   DRY( 23, 23)   DRY( 23, 24)   DRY( 23, 25)   
    DRY( 23, 26)   DRY( 23, 27)   DRY( 23, 28)   DRY( 23, 29)   DRY( 23, 30)   
    DRY( 23, 31)   DRY( 23, 32)   DRY( 23, 33)   DRY( 23, 34)   DRY( 23, 35)   
    DRY( 23, 36)   DRY( 23, 37)   DRY( 23, 38)   DRY( 23, 39)   DRY( 23, 40)   
    DRY( 24,  1)   DRY( 24,  2)   DRY( 24,  3)   DRY( 24,  4)   DRY( 24,  5)   
    DRY( 24,  6)   DRY( 24,  7)   DRY( 24,  8)   DRY( 24,  9)   DRY( 24, 10)   
    DRY( 24, 11)   DRY( 24, 12)   DRY( 24, 13)   DRY( 24, 14)   DRY( 24, 15)   
    DRY( 24, 16)   DRY( 24, 17)   DRY( 24, 18)   DRY( 24, 19)   DRY( 24, 20)   
    DRY( 24, 21)   DRY( 24, 22)   DRY( 24, 23)   DRY( 24, 24)   DRY( 24, 25)   
    DRY( 24, 26)   DRY( 24, 27)   DRY( 24, 28)   DRY( 24, 29)   DRY( 24, 30)   
    DRY( 24, 31)   DRY( 24, 32)   DRY( 24, 33)   DRY( 24, 34)   DRY( 24, 35)   
    DRY( 24, 36)   DRY( 24, 37)   DRY( 24, 38)   DRY( 24, 39)   DRY( 24, 40)   
    DRY( 25,  1)   DRY( 25,  2)   DRY( 25,  3)   DRY( 25,  4)   DRY( 25,  5)   
    DRY( 25,  6)   DRY( 25,  7)   DRY( 25,  8)   DRY( 25,  9)   DRY( 25, 10)   
    DRY( 25, 11)   DRY( 25, 12)   DRY( 25, 13)   DRY( 25, 14)   DRY( 25, 15)   
    DRY( 25, 16)   DRY( 25, 17)   DRY( 25, 18)   DRY( 25, 19)   DRY( 25, 20)   
    DRY( 25, 21)   DRY( 25, 22)   DRY( 25, 23)   DRY( 25, 24)   DRY( 25, 25)   
    DRY( 25, 26)   DRY( 25, 27)   DRY( 25, 28)   DRY( 25, 29)   DRY( 25, 30)   
    DRY( 25, 31)   DRY( 25, 32)   DRY( 25, 33)   DRY( 25, 34)   DRY( 25, 35)   
    DRY( 25, 36)   DRY( 25, 37)   DRY( 25, 38)   DRY( 25, 39)   DRY( 25, 40)   
    DRY( 26,  1)   DRY( 26,  2)   DRY( 26,  3)   DRY( 26,  4)   DRY( 26,  5)   
    DRY( 26,  6)   DRY( 26,  7)   DRY( 26,  8)   DRY( 26,  9)   DRY( 26, 10)   
    DRY( 26, 11)   DRY( 26, 12)   DRY( 26, 13)   DRY( 26, 14)   DRY( 26, 15)   
    DRY( 26, 16)   DRY( 26, 17)   DRY( 26, 18)   DRY( 26, 19)   DRY( 26, 20)   
    DRY( 26, 21)   DRY( 26, 22)   DRY( 26, 23)   DRY( 26, 24)   DRY( 26, 25)   
    DRY( 26, 26)   DRY( 26, 27)   DRY( 26, 28)   DRY( 26, 29)   DRY( 26, 30)   
    DRY( 26, 31)   DRY( 26, 32)   DRY( 26, 33)   DRY( 26, 34)   DRY( 26, 35)   
    DRY( 26, 36)   DRY( 26, 37)   DRY( 26, 38)   DRY( 26, 39)   DRY( 26, 40)   
    DRY( 27,  1)   DRY( 27,  2)   DRY( 27,  3)   DRY( 27,  4)   DRY( 27,  5)   
    DRY( 27,  6)   DRY( 27,  7)   DRY( 27,  8)   DRY( 27,  9)   DRY( 27, 10)   
    DRY( 27, 11)   DRY( 27, 12)   DRY( 27, 13)   DRY( 27, 14)   DRY( 27, 15)   
    DRY( 27, 16)   DRY( 27, 17)   DRY( 27, 18)   DRY( 27, 19)   DRY( 27, 20)   
    DRY( 27, 21)   DRY( 27, 22)   DRY( 27, 23)   DRY( 27, 24)   DRY( 27, 25)   
    DRY( 27, 26)   DRY( 27, 27)   DRY( 27, 28)   DRY( 27, 29)   DRY( 27, 30)   
    DRY( 27, 31)   DRY( 27, 32)   DRY( 27, 33)   DRY( 27, 34)   DRY( 27, 35)   
    DRY( 27, 36)   DRY( 27, 37)   DRY( 27, 38)   DRY( 27, 39)   DRY( 27, 40)   
    DRY( 28,  1)   DRY( 28,  2)   DRY( 28,  3)   DRY( 28,  4)   DRY( 28,  5)   
    DRY( 28,  6)   DRY( 28,  7)   DRY( 28,  8)   DRY( 28,  9)   DRY( 28, 10)   
    DRY( 28, 11)   DRY( 28, 12)   DRY( 28, 13)   DRY( 28, 14)   DRY( 28, 15)   
    DRY( 28, 16)   DRY( 28, 17)   DRY( 28, 18)   DRY( 28, 19)   DRY( 28, 20)   
    DRY( 28, 21)   DRY( 28, 22)   DRY( 28, 23)   DRY( 28, 24)   DRY( 28, 25)   
    DRY( 28, 26)   DRY( 28, 27)   DRY( 28, 28)   DRY( 28, 29)   DRY( 28, 30)   
    DRY( 28, 31)   DRY( 28, 32)   DRY( 28, 33)   DRY( 28, 34)   DRY( 28, 35)   
    DRY( 28, 36)   DRY( 28, 37)   DRY( 28, 38)   DRY( 28, 39)   DRY( 28, 40)   
    DRY( 29,  1)   DRY( 29,  2)   DRY( 29,  3)   DRY( 29,  4)   DRY( 29,  5)   
    DRY( 29,  6)   DRY( 29,  7)   DRY( 29,  8)   DRY( 29,  9)   DRY( 29, 10)   
    DRY( 29, 11)   DRY( 29, 12)   DRY( 29, 13)   DRY( 29, 14)   DRY( 29, 15)   
    DRY( 29, 16)   DRY( 29, 17)   DRY( 29, 18)   DRY( 29, 19)   DRY( 29, 20)   
    DRY( 29, 21)   DRY( 29, 22)   DRY( 29, 23)   DRY( 29, 24)   DRY( 29, 25)   
    DRY( 29, 26)   DRY( 29, 27)   DRY( 29, 28)   DRY( 29, 29)   DRY( 29, 30)   
    DRY( 29, 31)   DRY( 29, 32)   DRY( 29, 33)   DRY( 29, 34)   DRY( 29, 35)   
    DRY( 29, 36)   DRY( 29, 37)   DRY( 29, 38)   DRY( 29, 39)   DRY( 29, 40)   
    DRY( 30,  1)   DRY( 30,  2)   DRY( 30,  3)   DRY( 30,  4)   DRY( 30,  5)   
    DRY( 30,  6)   DRY( 30,  7)   DRY( 30,  8)   DRY( 30,  9)   DRY( 30, 10)   
    DRY( 30, 11)   DRY( 30, 12)   DRY( 30, 13)   DRY( 30, 14)   DRY( 30, 15)   
    DRY( 30, 16)   DRY( 30, 17)   DRY( 30, 18)   DRY( 30, 19)   DRY( 30, 20)   
    DRY( 30, 21)   DRY( 30, 22)   DRY( 30, 23)   DRY( 30, 24)   DRY( 30, 25)   
    DRY( 30, 26)   DRY( 30, 27)   DRY( 30, 28)   DRY( 30, 29)   DRY( 30, 30)   
    DRY( 30, 31)   DRY( 30, 32)   DRY( 30, 33)   DRY( 30, 34)   DRY( 30, 35)   
    DRY( 30, 36)   DRY( 30, 37)   DRY( 30, 38)   DRY( 30, 39)   DRY( 30, 40)   
    DRY( 31,  1)   DRY( 31,  2)   DRY( 31,  3)   DRY( 31,  4)   DRY( 31,  5)   
    DRY( 31,  6)   DRY( 31,  7)   DRY( 31,  8)   DRY( 31,  9)   DRY( 31, 10)   
    DRY( 31, 11)   DRY( 31, 12)   DRY( 31, 13)   DRY( 31, 14)   DRY( 31, 15)   
    DRY( 31, 16)   DRY( 31, 17)   DRY( 31, 18)   DRY( 31, 19)   DRY( 31, 20)   
    DRY( 31, 21)   DRY( 31, 22)   DRY( 31, 23)   DRY( 31, 24)   DRY( 31, 25)   
    DRY( 31, 26)   DRY( 31, 27)   DRY( 31, 28)   DRY( 31, 29)   DRY( 31, 30)   
    DRY( 31, 31)   DRY( 31, 32)   DRY( 31, 33)   DRY( 31, 34)   DRY( 31, 35)   
    DRY( 31, 36)   DRY( 31, 37)   DRY( 31, 38)   DRY( 31, 39)   DRY( 31, 40)   
    DRY( 32,  1)   DRY( 32,  2)   DRY( 32,  3)   DRY( 32,  4)   DRY( 32,  5)   
    DRY( 32,  6)   DRY( 32,  7)   DRY( 32,  8)   DRY( 32,  9)   DRY( 32, 10)   
    DRY( 32, 11)   DRY( 32, 12)   DRY( 32, 13)   DRY( 32, 14)   DRY( 32, 15)   
    DRY( 32, 16)   DRY( 32, 17)   DRY( 32, 18)   DRY( 32, 19)   DRY( 32, 20)   
    DRY( 32, 21)   DRY( 32, 22)   DRY( 32, 23)   DRY( 32, 24)   DRY( 32, 25)   
    DRY( 32, 26)   DRY( 32, 27)   DRY( 32, 28)   DRY( 32, 29)   DRY( 32, 30)   
    DRY( 32, 31)   DRY( 32, 32)   DRY( 32, 33)   DRY( 32, 34)   DRY( 32, 35)   
    DRY( 32, 36)   DRY( 32, 37)   DRY( 32, 38)   DRY( 32, 39)   DRY( 32, 40)   
    DRY( 33,  1)   DRY( 33,  2)   DRY( 33,  3)   DRY( 33,  4)   DRY( 33,  5)   
    DRY( 33,  6)   DRY( 33,  7)   DRY( 33,  8)   DRY( 33,  9)   DRY( 33, 10)   
    DRY( 33, 11)   DRY( 33, 12)   DRY( 33, 13)   DRY( 33, 14)   DRY( 33, 15)   
    DRY( 33, 16)   DRY( 33, 17)   DRY( 33, 18)   DRY( 33, 19)   DRY( 33, 20)   
    DRY( 33, 21)   DRY( 33, 22)   DRY( 33, 23)   DRY( 33, 24)   DRY( 33, 25)   
    DRY( 33, 26)   DRY( 33, 27)   DRY( 33, 28)   DRY( 33, 29)   DRY( 33, 30)   
    DRY( 33, 31)   DRY( 33, 32)   DRY( 33, 33)   DRY( 33, 34)   DRY( 33, 35)   
    DRY( 33, 36)   DRY( 33, 37)   DRY( 33, 38)   DRY( 33, 39)   DRY( 33, 40)   
    DRY( 34,  1)   DRY( 34,  2)   DRY( 34,  3)   DRY( 34,  4)   DRY( 34,  5)   
    DRY( 34,  6)   DRY( 34,  7)   DRY( 34,  8)   DRY( 34,  9)   DRY( 34, 10)   
    DRY( 34, 11)   DRY( 34, 12)   DRY( 34, 13)   DRY( 34, 14)   DRY( 34, 15)   
    DRY( 34, 16)   DRY( 34, 17)   DRY( 34, 18)   DRY( 34, 19)   DRY( 34, 20)   
    DRY( 34, 21)   DRY( 34, 22)   DRY( 34, 23)   DRY( 34, 24)   DRY( 34, 25)   
    DRY( 34, 26)   DRY( 34, 27)   DRY( 34, 28)   DRY( 34, 29)   DRY( 34, 30)   
    DRY( 34, 31)   DRY( 34, 32)   DRY( 34, 33)   DRY( 34, 34)   DRY( 34, 35)   
    DRY( 34, 36)   DRY( 34, 37)   DRY( 34, 38)   DRY( 34, 39)   DRY( 34, 40)   
    DRY( 35,  1)   DRY( 35,  2)   DRY( 35,  3)   DRY( 35,  4)   DRY( 35,  5)   
    DRY( 35,  6)   DRY( 35,  7)   DRY( 35,  8)   DRY( 35,  9)   DRY( 35, 10)   
    DRY( 35, 11)   DRY( 35, 12)   DRY( 35, 13)   DRY( 35, 14)   DRY( 35, 15)   
    DRY( 35, 16)   DRY( 35, 17)   DRY( 35, 18)   DRY( 35, 19)   DRY( 35, 20)   
    DRY( 35, 21)   DRY( 35, 22)   DRY( 35, 23)   DRY( 35, 24)   DRY( 35, 25)   
    DRY( 35, 26)   DRY( 35, 27)   DRY( 35, 28)   DRY( 35, 29)   DRY( 35, 30)   
    DRY( 35, 31)   DRY( 35, 32)   DRY( 35, 33)   DRY( 35, 34)   DRY( 35, 35)   
    DRY( 35, 36)   DRY( 35, 37)   DRY( 35, 38)   DRY( 35, 39)   DRY( 35, 40)   
    DRY( 36,  1)   DRY( 36,  2)   DRY( 36,  3)   DRY( 36,  4)   DRY( 36,  5)   
    DRY( 36,  6)   DRY( 36,  7)   DRY( 36,  8)   DRY( 36,  9)   DRY( 36, 10)   
    DRY( 36, 11)   DRY( 36, 12)   DRY( 36, 13)   DRY( 36, 14)   DRY( 36, 15)   
    DRY( 36, 16)   DRY( 36, 17)   DRY( 36, 18)   DRY( 36, 19)   DRY( 36, 20)   
    DRY( 36, 21)   DRY( 36, 22)   DRY( 36, 23)   DRY( 36, 24)   DRY( 36, 25)   
    DRY( 36, 26)   DRY( 36, 27)   DRY( 36, 28)   DRY( 36, 29)   DRY( 36, 30)   
    DRY( 36, 31)   DRY( 36, 32)   DRY( 36, 33)   DRY( 36, 34)   DRY( 36, 35)   
    DRY( 36, 36)   DRY( 36, 37)   DRY( 36, 38)   DRY( 36, 39)   DRY( 36, 40)   
    DRY( 37,  1)   DRY( 37,  2)   DRY( 37,  3)   DRY( 37,  4)   DRY( 37,  5)   
    DRY( 37,  6)   DRY( 37,  7)   DRY( 37,  8)   DRY( 37,  9)   DRY( 37, 10)   
    DRY( 37, 11)   DRY( 37, 12)   DRY( 37, 13)   DRY( 37, 14)   DRY( 37, 15)   
    DRY( 37, 16)   DRY( 37, 17)   DRY( 37, 18)   DRY( 37, 19)   DRY( 37, 20)   
    DRY( 37, 21)   DRY( 37, 22)   DRY( 37, 23)   DRY( 37, 24)   DRY( 37, 25)   
    DRY( 37, 26)   DRY( 37, 27)   DRY( 37, 28)   DRY( 37, 29)   DRY( 37, 30)   
    DRY( 37, 31)   DRY( 37, 32)   DRY( 37, 33)   DRY( 37, 34)   DRY( 37, 35)   
    DRY( 37, 36)   DRY( 37, 37)   DRY( 37, 38)   DRY( 37, 39)   DRY( 37, 40)   
    DRY( 38,  1)   DRY( 38,  2)   DRY( 38,  3)   DRY( 38,  4)   DRY( 38,  5)   
    DRY( 38,  6)   DRY( 38,  7)   DRY( 38,  8)   DRY( 38,  9)   DRY( 38, 10)   
    DRY( 38, 11)   DRY( 38, 12)   DRY( 38, 13)   DRY( 38, 14)   DRY( 38, 15)   
    DRY( 38, 16)   DRY( 38, 17)   DRY( 38, 18)   DRY( 38, 19)   DRY( 38, 20)   
    DRY( 38, 21)   DRY( 38, 22)   DRY( 38, 23)   DRY( 38, 24)   DRY( 38, 25)   
    DRY( 38, 26)   DRY( 38, 27)   DRY( 38, 28)   DRY( 38, 29)   DRY( 38, 30)   
    DRY( 38, 31)   DRY( 38, 32)   DRY( 38, 33)   DRY( 38, 34)   DRY( 38, 35)   
    DRY( 38, 36)   DRY( 38, 37)   DRY( 38, 38)   DRY( 38, 39)   DRY( 38, 40)   
    DRY( 39,  1)   DRY( 39,  2)   DRY( 39,  3)   DRY( 39,  4)   DRY( 39,  5)   
    DRY( 39,  6)   DRY( 39,  7)   DRY( 39,  8)   DRY( 39,  9)   DRY( 39, 10)   
    DRY( 39, 11)   DRY( 39, 12)   DRY( 39, 13)   DRY( 39, 14)   DRY( 39, 15)   
    DRY( 39, 16)   DRY( 39, 17)   DRY( 39, 18)   DRY( 39, 19)   DRY( 39, 20)   
    DRY( 39, 21)   DRY( 39, 22)   DRY( 39, 23)   DRY( 39, 24)   DRY( 39, 25)   
    DRY( 39, 26)   DRY( 39, 27)   DRY( 39, 28)   DRY( 39, 29)   DRY( 39, 30)   
    DRY( 39, 31)   DRY( 39, 32)   DRY( 39, 33)   DRY( 39, 34)   DRY( 39, 35)   
    DRY( 39, 36)   DRY( 39, 37)   DRY( 39, 38)   DRY( 39, 39)   DRY( 39, 40)   
    DRY( 40,  1)   DRY( 40,  2)   DRY( 40,  3)   DRY( 40,  4)   DRY( 40,  5)   
    DRY( 40,  6)   DRY( 40,  7)   DRY( 40,  8)   DRY( 40,  9)   DRY( 40, 10)   
    DRY( 40, 11)   DRY( 40, 12)   DRY( 40, 13)   DRY( 40, 14)   DRY( 40, 15)   
    DRY( 40, 16)   DRY( 40, 17)   DRY( 40, 18)   DRY( 40, 19)   DRY( 40, 20)   
    DRY( 40, 21)   DRY( 40, 22)   DRY( 40, 23)   DRY( 40, 24)   DRY( 40, 25)   
    DRY( 40, 26)   DRY( 40, 27)   DRY( 40, 28)   DRY( 40, 29)   DRY( 40, 30)   
    DRY( 40, 31)   DRY( 40, 32)   DRY( 40, 33)   DRY( 40, 34)   DRY( 40, 35)   
    DRY( 40, 36)   DRY( 40, 37)   DRY( 40, 38)   DRY( 40, 39)   DRY( 40, 40)   

 CELL CONVERSIONS FOR ITER.=  1  LAYER=  4  STEP=  1  PERIOD=   1   (ROW,COL)
    DRY(  1,  1)   DRY(  1,  2)   DRY(  1,  3)   DRY(  1,  4)   DRY(  1,  5)   
    DRY(  1,  6)   DRY(  1,  7)   DRY(  1,  8)   DRY(  1,  9)   DRY(  1, 10)   
    DRY(  1, 11)   DRY(  1, 12)   DRY(  1, 13)   DRY(  1, 14)   DRY(  1, 15)   
    DRY(  1, 16)   DRY(  1, 17)   DRY(  1, 18)   DRY(  1, 19)   DRY(  1, 20)   
    DRY(  1, 21)   DRY(  1, 22)   DRY(  1, 23)   DRY(  1, 24)   DRY(  1, 25)   
    DRY(  1, 26)   DRY(  1, 27)   DRY(  1, 28)   DRY(  1, 29)   DRY(  1, 30)   
    DRY(  1, 31)   DRY(  1, 32)   DRY(  1, 33)   DRY(  1, 34)   DRY(  1, 35)   
    DRY(  1, 36)   DRY(  1, 37)   DRY(  1, 38)   DRY(  1, 39)   DRY(  1, 40)   
    DRY(  2,  1)   DRY(  2,  2)   DRY(  2,  3)   DRY(  2,  4)   DRY(  2,  5)   
    DRY(  2,  6)   DRY(  2,  7)   DRY(  2,  8)   DRY(  2,  9)   DRY(  2, 10)   
    DRY(  2, 11)   DRY(  2, 12)   DRY(  2, 13)   DRY(  2, 14)   DRY(  2, 15)   
    DRY(  2, 16)   DRY(  2, 17)   DRY(  2, 18)   DRY(  2, 19)   DRY(  2, 20)   
    DRY(  2, 21)   DRY(  2, 22)   DRY(  2, 23)   DRY(  2, 24)   DRY(  2, 25)   
    DRY(  2, 26)   DRY(  2, 27)   DRY(  2, 28)   DRY(  2, 29)   DRY(  2, 30)   
    DRY(  2, 31)   DRY(  2, 32)   DRY(  2, 33)   DRY(  2, 34)   DRY(  2, 35)   
    DRY(  2, 36)   DRY(  2, 37)   DRY(  2, 38)   DRY(  2, 39)   DRY(  2, 40)   
    DRY(  3,  1)   DRY(  3,  2)   DRY(  3,  3)   DRY(  3,  4)   DRY(  3,  5)   
    DRY(  3,  6)   DRY(  3,  7)   DRY(  3,  8)   DRY(  3,  9)   DRY(  3, 10)   
    DRY(  3, 11)   DRY(  3, 12)   DRY(  3, 13)   DRY(  3, 14)   DRY(  3, 15)   
    DRY(  3, 16)   DRY(  3, 17)   DRY(  3, 18)   DRY(  3, 19)   DRY(  3, 20)   
    DRY(  3, 21)   DRY(  3, 22)   DRY(  3, 23)   DRY(  3, 24)   DRY(  3, 25)   
    DRY(  3, 26)   DRY(  3, 27)   DRY(  3, 28)   DRY(  3, 29)   DRY(  3, 30)   
    DRY(  3, 31)   DRY(  3, 32)   DRY(  3, 33)   DRY(  3, 34)   DRY(  3, 35)   
    DRY(  3, 36)   DRY(  3, 37)   DRY(  3, 38)   DRY(  3, 39)   DRY(  3, 40)   
    DRY(  4,  1)   DRY(  4,  2)   DRY(  4,  3)   DRY(  4,  4)   DRY(  4,  5)   
    DRY(  4,  6)   DRY(  4,  7)   DRY(  4,  8)   DRY(  4,  9)   DRY(  4, 10)   
    DRY(  4, 11)   DRY(  4, 12)   DRY(  4, 13)   DRY(  4, 14)   DRY(  4, 15)   
    DRY(  4, 16)   DRY(  4, 17)   DRY(  4, 18)   DRY(  4, 19)   DRY(  4, 20)   
    DRY(  4, 21)   DRY(  4, 22)   DRY(  4, 23)   DRY(  4, 24)   DRY(  4, 25)   
    DRY(  4, 26)   DRY(  4, 27)   DRY(  4, 28)   DRY(  4, 29)   DRY(  4, 30)   
    DRY(  4, 31)   DRY(  4, 32)   DRY(  4, 33)   DRY(  4, 34)   DRY(  4, 35)   
    DRY(  4, 36)   DRY(  4, 37)   DRY(  4, 38)   DRY(  4, 39)   DRY(  4, 40)   
    DRY(  5,  1)   DRY(  5,  2)   DRY(  5,  3)   DRY(  5,  4)   DRY(  5,  5)   
    DRY(  5,  6)   DRY(  5,  7)   DRY(  5,  8)   DRY(  5,  9)   DRY(  5, 10)   
    DRY(  5, 11)   DRY(  5, 12)   DRY(  5, 13)   DRY(  5, 14)   DRY(  5, 15)   
    DRY(  5, 16)   DRY(  5, 17)   DRY(  5, 18)   DRY(  5, 19)   DRY(  5, 20)   
    DRY(  5, 21)   DRY(  5, 22)   DRY(  5, 23)   DRY(  5, 24)   DRY(  5, 25)   
    DRY(  5, 26)   DRY(  5, 27)   DRY(  5, 28)   DRY(  5, 29)   DRY(  5, 30)   
    DRY(  5, 31)   DRY(  5, 32)   DRY(  5, 33)   DRY(  5, 34)   DRY(  5, 35)   
    DRY(  5, 36)   DRY(  5, 37)   DRY(  5, 38)   DRY(  5, 39)   DRY(  5, 40)   
    DRY(  6,  1)   DRY(  6,  2)   DRY(  6,  3)   DRY(  6,  4)   DRY(  6,  5)   
    DRY(  6,  6)   DRY(  6,  7)   DRY(  6,  8)   DRY(  6,  9)   DRY(  6, 10)   
    DRY(  6, 11)   DRY(  6, 12)   DRY(  6, 13)   DRY(  6, 14)   DRY(  6, 15)   
    DRY(  6, 16)   DRY(  6, 17)   DRY(  6, 18)   DRY(  6, 19)   DRY(  6, 20)   
    DRY(  6, 21)   DRY(  6, 22)   DRY(  6, 23)   DRY(  6, 24)   DRY(  6, 25)   
    DRY(  6, 26)   DRY(  6, 27)   DRY(  6, 28)   DRY(  6, 29)   DRY(  6, 30)   
    DRY(  6, 31)   DRY(  6, 32)   DRY(  6, 33)   DRY(  6, 34)   DRY(  6, 35)   
    DRY(  6, 36)   DRY(  6, 37)   DRY(  6, 38)   DRY(  6, 39)   DRY(  6, 40)   
    DRY(  7,  1)   DRY(  7,  2)   DRY(  7,  3)   DRY(  7,  4)   DRY(  7,  5)   
    DRY(  7,  6)   DRY(  7,  7)   DRY(  7,  8)   DRY(  7,  9)   DRY(  7, 10)   
    DRY(  7, 11)   DRY(  7, 12)   DRY(  7, 13)   DRY(  7, 14)   DRY(  7, 15)   
    DRY(  7, 16)   DRY(  7, 17)   DRY(  7, 18)   DRY(  7, 19)   DRY(  7, 20)   
    DRY(  7, 21)   DRY(  7, 22)   DRY(  7, 23)   DRY(  7, 24)   DRY(  7, 25)   
    DRY(  7, 26)   DRY(  7, 27)   DRY(  7, 28)   DRY(  7, 29)   DRY(  7, 30)   
    DRY(  7, 31)   DRY(  7, 32)   DRY(  7, 33)   DRY(  7, 34)   DRY(  7, 35)   
    DRY(  7, 36)   DRY(  7, 37)   DRY(  7, 38)   DRY(  7, 39)   DRY(  7, 40)   
    DRY(  8,  1)   DRY(  8,  2)   DRY(  8,  3)   DRY(  8,  4)   DRY(  8,  5)   
    DRY(  8,  6)   DRY(  8,  7)   DRY(  8,  8)   DRY(  8,  9)   DRY(  8, 10)   
    DRY(  8, 11)   DRY(  8, 12)   DRY(  8, 13)   DRY(  8, 14)   DRY(  8, 15)   
    DRY(  8, 16)   DRY(  8, 17)   DRY(  8, 18)   DRY(  8, 19)   DRY(  8, 20)   
    DRY(  8, 21)   DRY(  8, 22)   DRY(  8, 23)   DRY(  8, 24)   DRY(  8, 25)   
    DRY(  8, 26)   DRY(  8, 27)   DRY(  8, 28)   DRY(  8, 29)   DRY(  8, 30)   
    DRY(  8, 31)   DRY(  8, 32)   DRY(  8, 33)   DRY(  8, 34)   DRY(  8, 35)   
    DRY(  8, 36)   DRY(  8, 37)   DRY(  8, 38)   DRY(  8, 39)   DRY(  8, 40)   
    DRY(  9,  1)   DRY(  9,  2)   DRY(  9,  3)   DRY(  9,  4)   DRY(  9,  5)   
    DRY(  9,  6)   DRY(  9,  7)   DRY(  9,  8)   DRY(  9,  9)   DRY(  9, 10)   
    DRY(  9, 11)   DRY(  9, 12)   DRY(  9, 13)   DRY(  9, 14)   DRY(  9, 15)   
    DRY(  9, 16)   DRY(  9, 17)   DRY(  9, 18)   DRY(  9, 19)   DRY(  9, 20)   
    DRY(  9, 21)   DRY(  9, 22)   DRY(  9, 23)   DRY(  9, 24)   DRY(  9, 25)   
    DRY(  9, 26)   DRY(  9, 27)   DRY(  9, 28)   DRY(  9, 29)   DRY(  9, 30)   
    DRY(  9, 31)   DRY(  9, 32)   DRY(  9, 33)   DRY(  9, 34)   DRY(  9, 35)   
    DRY(  9, 36)   DRY(  9, 37)   DRY(  9, 38)   DRY(  9, 39)   DRY(  9, 40)   
    DRY( 10,  1)   DRY( 10,  2)   DRY( 10,  3)   DRY( 10,  4)   DRY( 10,  5)   
    DRY( 10,  6)   DRY( 10,  7)   DRY( 10,  8)   DRY( 10,  9)   DRY( 10, 10)   
    DRY( 10, 11)   DRY( 10, 12)   DRY( 10, 13)   DRY( 10, 14)   DRY( 10, 15)   
    DRY( 10, 16)   DRY( 10, 17)   DRY( 10, 18)   DRY( 10, 19)   DRY( 10, 20)   
    DRY( 10, 21)   DRY( 10, 22)   DRY( 10, 23)   DRY( 10, 24)   DRY( 10, 25)   
    DRY( 10, 26)   DRY( 10, 27)   DRY( 10, 28)   DRY( 10, 29)   DRY( 10, 30)   
    DRY( 10, 31)   DRY( 10, 32)   DRY( 10, 33)   DRY( 10, 34)   DRY( 10, 35)   
    DRY( 10, 36)   DRY( 10, 37)   DRY( 10, 38)   DRY( 10, 39)   DRY( 10, 40)   
    DRY( 11,  1)   DRY( 11,  2)   DRY( 11,  3)   DRY( 11,  4)   DRY( 11,  5)   
    DRY( 11,  6)   DRY( 11,  7)   DRY( 11,  8)   DRY( 11,  9)   DRY( 11, 10)   
    DRY( 11, 11)   DRY( 11, 12)   DRY( 11, 13)   DRY( 11, 14)   DRY( 11, 15)   
    DRY( 11, 16)   DRY( 11, 17)   DRY( 11, 18)   DRY( 11, 19)   DRY( 11, 20)   
    DRY( 11, 21)   DRY( 11, 22)   DRY( 11, 23)   DRY( 11, 24)   DRY( 11, 25)   
    DRY( 11, 26)   DRY( 11, 27)   DRY( 11, 28)   DRY( 11, 29)   DRY( 11, 30)   
    DRY( 11, 31)   DRY( 11, 32)   DRY( 11, 33)   DRY( 11, 34)   DRY( 11, 35)   
    DRY( 11, 36)   DRY( 11, 37)   DRY( 11, 38)   DRY( 11, 39)   DRY( 11, 40)   
    DRY( 12,  1)   DRY( 12,  2)   DRY( 12,  3)   DRY( 12,  4)   DRY( 12,  5)   
    DRY( 12,  6)   DRY( 12,  7)   DRY( 12,  8)   DRY( 12,  9)   DRY( 12, 10)   
    DRY( 12, 11)   DRY( 12, 12)   DRY( 12, 13)   DRY( 12, 14)   DRY( 12, 15)   
    DRY( 12, 16)   DRY( 12, 17)   DRY( 12, 18)   DRY( 12, 19)   DRY( 12, 20)   
    DRY( 12, 21)   DRY( 12, 22)   DRY( 12, 23)   DRY( 12, 24)   DRY( 12, 25)   
    DRY( 12, 26)   DRY( 12, 27)   DRY( 12, 28)   DRY( 12, 29)   DRY( 12, 30)   
    DRY( 12, 31)   DRY( 12, 32)   DRY( 12, 33)   DRY( 12, 34)   DRY( 12, 35)   
    DRY( 12, 36)   DRY( 12, 37)   DRY( 12, 38)   DRY( 12, 39)   DRY( 12, 40)   
    DRY( 13,  1)   DRY( 13,  2)   DRY( 13,  3)   DRY( 13,  4)   DRY( 13,  5)   
    DRY( 13,  6)   DRY( 13,  7)   DRY( 13,  8)   DRY( 13,  9)   DRY( 13, 10)   
    DRY( 13, 11)   DRY( 13, 12)   DRY( 13, 13)   DRY( 13, 14)   DRY( 13, 15)   
    DRY( 13, 16)   DRY( 13, 17)   DRY( 13, 18)   DRY( 13, 19)   DRY( 13, 20)   
    DRY( 13, 21)   DRY( 13, 22)   DRY( 13, 23)   DRY( 13, 24)   DRY( 13, 25)   
    DRY( 13, 26)   DRY( 13, 27)   DRY( 13, 28)   DRY( 13, 29)   DRY( 13, 30)   
    DRY( 13, 31)   DRY( 13, 32)   DRY( 13, 33)   DRY( 13, 34)   DRY( 13, 35)   
    DRY( 13, 36)   DRY( 13, 37)   DRY( 13, 38)   DRY( 13, 39)   DRY( 13, 40)   
    DRY( 14,  1)   DRY( 14,  2)   DRY( 14,  3)   DRY( 14,  4)   DRY( 14,  5)   
    DRY( 14,  6)   DRY( 14,  7)   DRY( 14,  8)   DRY( 14,  9)   DRY( 14, 10)   
    DRY( 14, 11)   DRY( 14, 12)   DRY( 14, 13)   DRY( 14, 14)   DRY( 14, 15)   
    DRY( 14, 16)   DRY( 14, 17)   DRY( 14, 18)   DRY( 14, 19)   DRY( 14, 20)   
    DRY( 14, 21)   DRY( 14, 22)   DRY( 14, 23)   DRY( 14, 24)   DRY( 14, 25)   
    DRY( 14, 26)   DRY( 14, 27)   DRY( 14, 28)   DRY( 14, 29)   DRY( 14, 30)   
    DRY( 14, 31)   DRY( 14, 32)   DRY( 14, 33)   DRY( 14, 34)   DRY( 14, 35)   
    DRY( 14, 36)   DRY( 14, 37)   DRY( 14, 38)   DRY( 14, 39)   DRY( 14, 40)   
    DRY( 15,  1)   DRY( 15,  2)   DRY( 15,  3)   DRY( 15,  4)   DRY( 15,  5)   
    DRY( 15,  6)   DRY( 15,  7)   DRY( 15,  8)   DRY( 15,  9)   DRY( 15, 10)   
    DRY( 15, 11)   DRY( 15, 12)   DRY( 15, 13)   DRY( 15, 14)   DRY( 15, 15)   
    DRY( 15, 16)   DRY( 15, 17)   DRY( 15, 18)   DRY( 15, 19)   DRY( 15, 20)   
    DRY( 15, 21)   DRY( 15, 22)   DRY( 15, 23)   DRY( 15, 24)   DRY( 15, 25)   
    DRY( 15, 26)   DRY( 15, 27)   DRY( 15, 28)   DRY( 15, 29)   DRY( 15, 30)   
    DRY( 15, 31)   DRY( 15, 32)   DRY( 15, 33)   DRY( 15, 34)   DRY( 15, 35)   
    DRY( 15, 36)   DRY( 15, 37)   DRY( 15, 38)   DRY( 15, 39)   DRY( 15, 40)   
    DRY( 16,  1)   DRY( 16,  2)   DRY( 16,  3)   DRY( 16,  4)   DRY( 16,  5)   
    DRY( 16,  6)   DRY( 16,  7)   DRY( 16,  8)   DRY( 16,  9)   DRY( 16, 10)   
    DRY( 16, 11)   DRY( 16, 12)   DRY( 16, 13)   DRY( 16, 14)   DRY( 16, 15)   
    DRY( 16, 16)   DRY( 16, 17)   DRY( 16, 18)   DRY( 16, 19)   DRY( 16, 20)   
    DRY( 16, 21)   DRY( 16, 22)   DRY( 16, 23)   DRY( 16, 24)   DRY( 16, 25)   
    DRY( 16, 26)   DRY( 16, 27)   DRY( 16, 28)   DRY( 16, 29)   DRY( 16, 30)   
    DRY( 16, 31)   DRY( 16, 32)   DRY( 16, 33)   DRY( 16, 34)   DRY( 16, 35)   
    DRY( 16, 36)   DRY( 16, 37)   DRY( 16, 38)   DRY( 16, 39)   DRY( 16, 40)   
    DRY( 17,  1)   DRY( 17,  2)   DRY( 17,  3)   DRY( 17,  4)   DRY( 17,  5)   
    DRY( 17,  6)   DRY( 17,  7)   DRY( 17,  8)   DRY( 17,  9)   DRY( 17, 10)   
    DRY( 17, 11)   DRY( 17, 12)   DRY( 17, 13)   DRY( 17, 14)   DRY( 17, 15)   
    DRY( 17, 16)   DRY( 17, 17)   DRY( 17, 18)   DRY( 17, 19)   DRY( 17, 20)   
    DRY( 17, 21)   DRY( 17, 22)   DRY( 17, 23)   DRY( 17, 24)   DRY( 17, 25)   
    DRY( 17, 26)   DRY( 17, 27)   DRY( 17, 28)   DRY( 17, 29)   DRY( 17, 30)   
    DRY( 17, 31)   DRY( 17, 32)   DRY( 17, 33)   DRY( 17, 34)   DRY( 17, 35)   
    DRY( 17, 36)   DRY( 17, 37)   DRY( 17, 38)   DRY( 17, 39)   DRY( 17, 40)   
    DRY( 18,  1)   DRY( 18,  2)   DRY( 18,  3)   DRY( 18,  4)   DRY( 18,  5)   
    DRY( 18,  6)   DRY( 18,  7)   DRY( 18,  8)   DRY( 18,  9)   DRY( 18, 10)   
    DRY( 18, 11)   DRY( 18, 12)   DRY( 18, 13)   DRY( 18, 14)   DRY( 18, 15)   
    DRY( 18, 16)   DRY( 18, 17)   DRY( 18, 18)   DRY( 18, 19)   DRY( 18, 20)   
    DRY( 18, 21)   DRY( 18, 22)   DRY( 18, 23)   DRY( 18, 24)   DRY( 18, 25)   
    DRY( 18, 26)   DRY( 18, 27)   DRY( 18, 28)   DRY( 18, 29)   DRY( 18, 30)   
    DRY( 18, 31)   DRY( 18, 32)   DRY( 18, 33)   DRY( 18, 34)   DRY( 18, 35)   
    DRY( 18, 36)   DRY( 18, 37)   DRY( 18, 38)   DRY( 18, 39)   DRY( 18, 40)   
    DRY( 19,  1)   DRY( 19,  2)   DRY( 19,  3)   DRY( 19,  4)   DRY( 19,  5)   
    DRY( 19,  6)   DRY( 19,  7)   DRY( 19,  8)   DRY( 19,  9)   DRY( 19, 10)   
    DRY( 19, 11)   DRY( 19, 12)   DRY( 19, 13)   DRY( 19, 14)   DRY( 19, 15)   
    DRY( 19, 16)   DRY( 19, 17)   DRY( 19, 18)   DRY( 19, 19)   DRY( 19, 20)   
    DRY( 19, 21)   DRY( 19, 22)   DRY( 19, 23)   DRY( 19, 24)   DRY( 19, 25)   
    DRY( 19, 26)   DRY( 19, 27)   DRY( 19, 28)   DRY( 19, 29)   DRY( 19, 30)   
    DRY( 19, 31)   DRY( 19, 32)   DRY( 19, 33)   DRY( 19, 34)   DRY( 19, 35)   
    DRY( 19, 36)   DRY( 19, 37)   DRY( 19, 38)   DRY( 19, 39)   DRY( 19, 40)   
    DRY( 20,  1)   DRY( 20,  2)   DRY( 20,  3)   DRY( 20,  4)   DRY( 20,  5)   
    DRY( 20,  6)   DRY( 20,  7)   DRY( 20,  8)   DRY( 20,  9)   DRY( 20, 10)   
    DRY( 20, 11)   DRY( 20, 12)   DRY( 20, 13)   DRY( 20, 14)   DRY( 20, 15)   
    DRY( 20, 16)   DRY( 20, 17)   DRY( 20, 18)   DRY( 20, 19)   DRY( 20, 20)   
    DRY( 20, 21)   DRY( 20, 22)   DRY( 20, 23)   DRY( 20, 24)   DRY( 20, 25)   
    DRY( 20, 26)   DRY( 20, 27)   DRY( 20, 28)   DRY( 20, 29)   DRY( 20, 30)   
    DRY( 20, 31)   DRY( 20, 32)   DRY( 20, 33)   DRY( 20, 34)   DRY( 20, 35)   
    DRY( 20, 36)   DRY( 20, 37)   DRY( 20, 38)   DRY( 20, 39)   DRY( 20, 40)   
    DRY( 21,  1)   DRY( 21,  2)   DRY( 21,  3)   DRY( 21,  4)   DRY( 21,  5)   
    DRY( 21,  6)   DRY( 21,  7)   DRY( 21,  8)   DRY( 21,  9)   DRY( 21, 10)   
    DRY( 21, 11)   DRY( 21, 12)   DRY( 21, 13)   DRY( 21, 14)   DRY( 21, 15)   
    DRY( 21, 16)   DRY( 21, 17)   DRY( 21, 18)   DRY( 21, 19)   DRY( 21, 20)   
    DRY( 21, 21)   DRY( 21, 22)   DRY( 21, 23)   DRY( 21, 24)   DRY( 21, 25)   
    DRY( 21, 26)   DRY( 21, 27)   DRY( 21, 28)   DRY( 21, 29)   DRY( 21, 30)   
    DRY( 21, 31)   DRY( 21, 32)   DRY( 21, 33)   DRY( 21, 34)   DRY( 21, 35)   
    DRY( 21, 36)   DRY( 21, 37)   DRY( 21, 38)   DRY( 21, 39)   DRY( 21, 40)   
    DRY( 22,  1)   DRY( 22,  2)   DRY( 22,  3)   DRY( 22,  4)   DRY( 22,  5)   
    DRY( 22,  6)   DRY( 22,  7)   DRY( 22,  8)   DRY( 22,  9)   DRY( 22, 10)   
    DRY( 22, 11)   DRY( 22, 12)   DRY( 22, 13)   DRY( 22, 14)   DRY( 22, 15)   
    DRY( 22, 16)   DRY( 22, 17)   DRY( 22, 18)   DRY( 22, 19)   DRY( 22, 20)   
    DRY( 22, 21)   DRY( 22, 22)   DRY( 22, 23)   DRY( 22, 24)   DRY( 22, 25)   
    DRY( 22, 26)   DRY( 22, 27)   DRY( 22, 28)   DRY( 22, 29)   DRY( 22, 30)   
    DRY( 22, 31)   DRY( 22, 32)   DRY( 22, 33)   DRY( 22, 34)   DRY( 22, 35)   
    DRY( 22, 36)   DRY( 22, 37)   DRY( 22, 38)   DRY( 22, 39)   DRY( 22, 40)   
    DRY( 23,  1)   DRY( 23,  2)   DRY( 23,  3)   DRY( 23,  4)   DRY( 23,  5)   
    DRY( 23,  6)   DRY( 23,  7)   DRY( 23,  8)   DRY( 23,  9)   DRY( 23, 10)   
    DRY( 23, 11)   DRY( 23, 12)   DRY( 23, 13)   DRY( 23, 14)   DRY( 23, 15)   
    DRY( 23, 16)   DRY( 23, 17)   DRY( 23, 18)   DRY( 23, 19)   DRY( 23, 20)   
    DRY( 23, 21)   DRY( 23, 22)   DRY( 23, 23)   DRY( 23, 24)   DRY( 23, 25)   
    DRY( 23, 26)   DRY( 23, 27)   DRY( 23, 28)   DRY( 23, 29)   DRY( 23, 30)   
    DRY( 23, 31)   DRY( 23, 32)   DRY( 23, 33)   DRY( 23, 34)   DRY( 23, 35)   
    DRY( 23, 36)   DRY( 23, 37)   DRY( 23, 38)   DRY( 23, 39)   DRY( 23, 40)   
    DRY( 24,  1)   DRY( 24,  2)   DRY( 24,  3)   DRY( 24,  4)   DRY( 24,  5)   
    DRY( 24,  6)   DRY( 24,  7)   DRY( 24,  8)   DRY( 24,  9)   DRY( 24, 10)   
    DRY( 24, 11)   DRY( 24, 12)   DRY( 24, 13)   DRY( 24, 14)   DRY( 24, 15)   
    DRY( 24, 16)   DRY( 24, 17)   DRY( 24, 18)   DRY( 24, 19)   DRY( 24, 20)   
    DRY( 24, 21)   DRY( 24, 22)   DRY( 24, 23)   DRY( 24, 24)   DRY( 24, 25)   
    DRY( 24, 26)   DRY( 24, 27)   DRY( 24, 28)   DRY( 24, 29)   DRY( 24, 30)   
    DRY( 24, 31)   DRY( 24, 32)   DRY( 24, 33)   DRY( 24, 34)   DRY( 24, 35)   
    DRY( 24, 36)   DRY( 24, 37)   DRY( 24, 38)   DRY( 24, 39)   DRY( 24, 40)   
    DRY( 25,  1)   DRY( 25,  2)   DRY( 25,  3)   DRY( 25,  4)   DRY( 25,  5)   
    DRY( 25,  6)   DRY( 25,  7)   DRY( 25,  8)   DRY( 25,  9)   DRY( 25, 10)   
    DRY( 25, 11)   DRY( 25, 12)   DRY( 25, 13)   DRY( 25, 14)   DRY( 25, 15)   
    DRY( 25, 16)   DRY( 25, 17)   DRY( 25, 18)   DRY( 25, 19)   DRY( 25, 20)   
    DRY( 25, 21)   DRY( 25, 22)   DRY( 25, 23)   DRY( 25, 24)   DRY( 25, 25)   
    DRY( 25, 26)   DRY( 25, 27)   DRY( 25, 28)   DRY( 25, 29)   DRY( 25, 30)   
    DRY( 25, 31)   DRY( 25, 32)   DRY( 25, 33)   DRY( 25, 34)   DRY( 25, 35)   
    DRY( 25, 36)   DRY( 25, 37)   DRY( 25, 38)   DRY( 25, 39)   DRY( 25, 40)   
    DRY( 26,  1)   DRY( 26,  2)   DRY( 26,  3)   DRY( 26,  4)   DRY( 26,  5)   
    DRY( 26,  6)   DRY( 26,  7)   DRY( 26,  8)   DRY( 26,  9)   DRY( 26, 10)   
    DRY( 26, 11)   DRY( 26, 12)   DRY( 26, 13)   DRY( 26, 14)   DRY( 26, 15)   
    DRY( 26, 16)   DRY( 26, 17)   DRY( 26, 18)   DRY( 26, 19)   DRY( 26, 20)   
    DRY( 26, 21)   DRY( 26, 22)   DRY( 26, 23)   DRY( 26, 24)   DRY( 26, 25)   
    DRY( 26, 26)   DRY( 26, 27)   DRY( 26, 28)   DRY( 26, 29)   DRY( 26, 30)   
    DRY( 26, 31)   DRY( 26, 32)   DRY( 26, 33)   DRY( 26, 34)   DRY( 26, 35)   
    DRY( 26, 36)   DRY( 26, 37)   DRY( 26, 38)   DRY( 26, 39)   DRY( 26, 40)   
    DRY( 27,  1)   DRY( 27,  2)   DRY( 27,  3)   DRY( 27,  4)   DRY( 27,  5)   
    DRY( 27,  6)   DRY( 27,  7)   DRY( 27,  8)   DRY( 27,  9)   DRY( 27, 10)   
    DRY( 27, 11)   DRY( 27, 12)   DRY( 27, 13)   DRY( 27, 14)   DRY( 27, 15)   
    DRY( 27, 16)   DRY( 27, 17)   DRY( 27, 18)   DRY( 27, 19)   DRY( 27, 20)   
    DRY( 27, 21)   DRY( 27, 22)   DRY( 27, 23)   DRY( 27, 24)   DRY( 27, 25)   
    DRY( 27, 26)   DRY( 27, 27)   DRY( 27, 28)   DRY( 27, 29)   DRY( 27, 30)   
    DRY( 27, 31)   DRY( 27, 32)   DRY( 27, 33)   DRY( 27, 34)   DRY( 27, 35)   
    DRY( 27, 36)   DRY( 27, 37)   DRY( 27, 38)   DRY( 27, 39)   DRY( 27, 40)   
    DRY( 28,  1)   DRY( 28,  2)   DRY( 28,  3)   DRY( 28,  4)   DRY( 28,  5)   
    DRY( 28,  6)   DRY( 28,  7)   DRY( 28,  8)   DRY( 28,  9)   DRY( 28, 10)   
    DRY( 28, 11)   DRY( 28, 12)   DRY( 28, 13)   DRY( 28, 14)   DRY( 28, 15)   
    DRY( 28, 16)   DRY( 28, 17)   DRY( 28, 18)   DRY( 28, 19)   DRY( 28, 20)   
    DRY( 28, 21)   DRY( 28, 22)   DRY( 28, 23)   DRY( 28, 24)   DRY( 28, 25)   
    DRY( 28, 26)   DRY( 28, 27)   DRY( 28, 28)   DRY( 28, 29)   DRY( 28, 30)   
    DRY( 28, 31)   DRY( 28, 32)   DRY( 28, 33)   DRY( 28, 34)   DRY( 28, 35)   
    DRY( 28, 36)   DRY( 28, 37)   DRY( 28, 38)   DRY( 28, 39)   DRY( 28, 40)   
    DRY( 29,  1)   DRY( 29,  2)   DRY( 29,  3)   DRY( 29,  4)   DRY( 29,  5)   
    DRY( 29,  6)   DRY( 29,  7)   DRY( 29,  8)   DRY( 29,  9)   DRY( 29, 10)   
    DRY( 29, 11)   DRY( 29, 12)   DRY( 29, 13)   DRY( 29, 14)   DRY( 29, 15)   
    DRY( 29, 16)   DRY( 29, 17)   DRY( 29, 18)   DRY( 29, 19)   DRY( 29, 20)   
    DRY( 29, 21)   DRY( 29, 22)   DRY( 29, 23)   DRY( 29, 24)   DRY( 29, 25)   
    DRY( 29, 26)   DRY( 29, 27)   DRY( 29, 28)   DRY( 29, 29)   DRY( 29, 30)   
    DRY( 29, 31)   DRY( 29, 32)   DRY( 29, 33)   DRY( 29, 34)   DRY( 29, 35)   
    DRY( 29, 36)   DRY( 29, 37)   DRY( 29, 38)   DRY( 29, 39)   DRY( 29, 40)   
    DRY( 30,  1)   DRY( 30,  2)   DRY( 30,  3)   DRY( 30,  4)   DRY( 30,  5)   
    DRY( 30,  6)   DRY( 30,  7)   DRY( 30,  8)   DRY( 30,  9)   DRY( 30, 10)   
    DRY( 30, 11)   DRY( 30, 12)   DRY( 30, 13)   DRY( 30, 14)   DRY( 30, 15)   
    DRY( 30, 16)   DRY( 30, 17)   DRY( 30, 18)   DRY( 30, 19)   DRY( 30, 20)   
    DRY( 30, 21)   DRY( 30, 22)   DRY( 30, 23)   DRY( 30, 24)   DRY( 30, 25)   
    DRY( 30, 26)   DRY( 30, 27)   DRY( 30, 28)   DRY( 30, 29)   DRY( 30, 30)   
    DRY( 30, 31)   DRY( 30, 32)   DRY( 30, 33)   DRY( 30, 34)   DRY( 30, 35)   
    DRY( 30, 36)   DRY( 30, 37)   DRY( 30, 38)   DRY( 30, 39)   DRY( 30, 40)   
    DRY( 31,  1)   DRY( 31,  2)   DRY( 31,  3)   DRY( 31,  4)   DRY( 31,  5)   
    DRY( 31,  6)   DRY( 31,  7)   DRY( 31,  8)   DRY( 31,  9)   DRY( 31, 10)   
    DRY( 31, 11)   DRY( 31, 12)   DRY( 31, 13)   DRY( 31, 14)   DRY( 31, 15)   
    DRY( 31, 16)   DRY( 31, 17)   DRY( 31, 18)   DRY( 31, 19)   DRY( 31, 20)   
    DRY( 31, 21)   DRY( 31, 22)   DRY( 31, 23)   DRY( 31, 24)   DRY( 31, 25)   
    DRY( 31, 26)   DRY( 31, 27)   DRY( 31, 28)   DRY( 31, 29)   DRY( 31, 30)   
    DRY( 31, 31)   DRY( 31, 32)   DRY( 31, 33)   DRY( 31, 34)   DRY( 31, 35)   
    DRY( 31, 36)   DRY( 31, 37)   DRY( 31, 38)   DRY( 31, 39)   DRY( 31, 40)   
    DRY( 32,  1)   DRY( 32,  2)   DRY( 32,  3)   DRY( 32,  4)   DRY( 32,  5)   
    DRY( 32,  6)   DRY( 32,  7)   DRY( 32,  8)   DRY( 32,  9)   DRY( 32, 10)   
    DRY( 32, 11)   DRY( 32, 12)   DRY( 32, 13)   DRY( 32, 14)   DRY( 32, 15)   
    DRY( 32, 16)   DRY( 32, 17)   DRY( 32, 18)   DRY( 32, 19)   DRY( 32, 20)   
    DRY( 32, 21)   DRY( 32, 22)   DRY( 32, 23)   DRY( 32, 24)   DRY( 32, 25)   
    DRY( 32, 26)   DRY( 32, 27)   DRY( 32, 28)   DRY( 32, 29)   DRY( 32, 30)   
    DRY( 32, 31)   DRY( 32, 32)   DRY( 32, 33)   DRY( 32, 34)   DRY( 32, 35)   
    DRY( 32, 36)   DRY( 32, 37)   DRY( 32, 38)   DRY( 32, 39)   DRY( 32, 40)   
    DRY( 33,  1)   DRY( 33,  2)   DRY( 33,  3)   DRY( 33,  4)   DRY( 33,  5)   
    DRY( 33,  6)   DRY( 33,  7)   DRY( 33,  8)   DRY( 33,  9)   DRY( 33, 10)   
    DRY( 33, 11)   DRY( 33, 12)   DRY( 33, 13)   DRY( 33, 14)   DRY( 33, 15)   
    DRY( 33, 16)   DRY( 33, 17)   DRY( 33, 18)   DRY( 33, 19)   DRY( 33, 20)   
    DRY( 33, 21)   DRY( 33, 22)   DRY( 33, 23)   DRY( 33, 24)   DRY( 33, 25)   
    DRY( 33, 26)   DRY( 33, 27)   DRY( 33, 28)   DRY( 33, 29)   DRY( 33, 30)   
    DRY( 33, 31)   DRY( 33, 32)   DRY( 33, 33)   DRY( 33, 34)   DRY( 33, 35)   
    DRY( 33, 36)   DRY( 33, 37)   DRY( 33, 38)   DRY( 33, 39)   DRY( 33, 40)   
    DRY( 34,  1)   DRY( 34,  2)   DRY( 34,  3)   DRY( 34,  4)   DRY( 34,  5)   
    DRY( 34,  6)   DRY( 34,  7)   DRY( 34,  8)   DRY( 34,  9)   DRY( 34, 10)   
    DRY( 34, 11)   DRY( 34, 12)   DRY( 34, 13)   DRY( 34, 14)   DRY( 34, 15)   
    DRY( 34, 16)   DRY( 34, 17)   DRY( 34, 18)   DRY( 34, 19)   DRY( 34, 20)   
    DRY( 34, 21)   DRY( 34, 22)   DRY( 34, 23)   DRY( 34, 24)   DRY( 34, 25)   
    DRY( 34, 26)   DRY( 34, 27)   DRY( 34, 28)   DRY( 34, 29)   DRY( 34, 30)   
    DRY( 34, 31)   DRY( 34, 32)   DRY( 34, 33)   DRY( 34, 34)   DRY( 34, 35)   
    DRY( 34, 36)   DRY( 34, 37)   DRY( 34, 38)   DRY( 34, 39)   DRY( 34, 40)   
    DRY( 35,  1)   DRY( 35,  2)   DRY( 35,  3)   DRY( 35,  4)   DRY( 35,  5)   
    DRY( 35,  6)   DRY( 35,  7)   DRY( 35,  8)   DRY( 35,  9)   DRY( 35, 10)   
    DRY( 35, 11)   DRY( 35, 12)   DRY( 35, 13)   DRY( 35, 14)   DRY( 35, 15)   
    DRY( 35, 16)   DRY( 35, 17)   DRY( 35, 18)   DRY( 35, 19)   DRY( 35, 20)   
    DRY( 35, 21)   DRY( 35, 22)   DRY( 35, 23)   DRY( 35, 24)   DRY( 35, 25)   
    DRY( 35, 26)   DRY( 35, 27)   DRY( 35, 28)   DRY( 35, 29)   DRY( 35, 30)   
    DRY( 35, 31)   DRY( 35, 32)   DRY( 35, 33)   DRY( 35, 34)   DRY( 35, 35)   
    DRY( 35, 36)   DRY( 35, 37)   DRY( 35, 38)   DRY( 35, 39)   DRY( 35, 40)   
    DRY( 36,  1)   DRY( 36,  2)   DRY( 36,  3)   DRY( 36,  4)   DRY( 36,  5)   
    DRY( 36,  6)   DRY( 36,  7)   DRY( 36,  8)   DRY( 36,  9)   DRY( 36, 10)   
    DRY( 36, 11)   DRY( 36, 12)   DRY( 36, 13)   DRY( 36, 14)   DRY( 36, 15)   
    DRY( 36, 16)   DRY( 36, 17)   DRY( 36, 18)   DRY( 36, 19)   DRY( 36, 20)   
    DRY( 36, 21)   DRY( 36, 22)   DRY( 36, 23)   DRY( 36, 24)   DRY( 36, 25)   
    DRY( 36, 26)   DRY( 36, 27)   DRY( 36, 28)   DRY( 36, 29)   DRY( 36, 30)   
    DRY( 36, 31)   DRY( 36, 32)   DRY( 36, 33)   DRY( 36, 34)   DRY( 36, 35)   
    DRY( 36, 36)   DRY( 36, 37)   DRY( 36, 38)   DRY( 36, 39)   DRY( 36, 40)   
    DRY( 37,  1)   DRY( 37,  2)   DRY( 37,  3)   DRY( 37,  4)   DRY( 37,  5)   
    DRY( 37,  6)   DRY( 37,  7)   DRY( 37,  8)   DRY( 37,  9)   DRY( 37, 10)   
    DRY( 37, 11)   DRY( 37, 12)   DRY( 37, 13)   DRY( 37, 14)   DRY( 37, 15)   
    DRY( 37, 16)   DRY( 37, 17)   DRY( 37, 18)   DRY( 37, 19)   DRY( 37, 20)   
    DRY( 37, 21)   DRY( 37, 22)   DRY( 37, 23)   DRY( 37, 24)   DRY( 37, 25)   
    DRY( 37, 26)   DRY( 37, 27)   DRY( 37, 28)   DRY( 37, 29)   DRY( 37, 30)   
    DRY( 37, 31)   DRY( 37, 32)   DRY( 37, 33)   DRY( 37, 34)   DRY( 37, 35)   
    DRY( 37, 36)   DRY( 37, 37)   DRY( 37, 38)   DRY( 37, 39)   DRY( 37, 40)   
    DRY( 38,  1)   DRY( 38,  2)   DRY( 38,  3)   DRY( 38,  4)   DRY( 38,  5)   
    DRY( 38,  6)   DRY( 38,  7)   DRY( 38,  8)   DRY( 38,  9)   DRY( 38, 10)   
    DRY( 38, 11)   DRY( 38, 12)   DRY( 38, 13)   DRY( 38, 14)   DRY( 38, 15)   
    DRY( 38, 16)   DRY( 38, 17)   DRY( 38, 18)   DRY( 38, 19)   DRY( 38, 20)   
    DRY( 38, 21)   DRY( 38, 22)   DRY( 38, 23)   DRY( 38, 24)   DRY( 38, 25)   
    DRY( 38, 26)   DRY( 38, 27)   DRY( 38, 28)   DRY( 38, 29)   DRY( 38, 30)   
    DRY( 38, 31)   DRY( 38, 32)   DRY( 38, 33)   DRY( 38, 34)   DRY( 38, 35)   
    DRY( 38, 36)   DRY( 38, 37)   DRY( 38, 38)   DRY( 38, 39)   DRY( 38, 40)   
    DRY( 39,  1)   DRY( 39,  2)   DRY( 39,  3)   DRY( 39,  4)   DRY( 39,  5)   
    DRY( 39,  6)   DRY( 39,  7)   DRY( 39,  8)   DRY( 39,  9)   DRY( 39, 10)   
    DRY( 39, 11)   DRY( 39, 12)   DRY( 39, 13)   DRY( 39, 14)   DRY( 39, 15)   
    DRY( 39, 16)   DRY( 39, 17)   DRY( 39, 18)   DRY( 39, 19)   DRY( 39, 20)   
    DRY( 39, 21)   DRY( 39, 22)   DRY( 39, 23)   DRY( 39, 24)   DRY( 39, 25)   
    DRY( 39, 26)   DRY( 39, 27)   DRY( 39, 28)   DRY( 39, 29)   DRY( 39, 30)   
    DRY( 39, 31)   DRY( 39, 32)   DRY( 39, 33)   DRY( 39, 34)   DRY( 39, 35)   
    DRY( 39, 36)   DRY( 39, 37)   DRY( 39, 38)   DRY( 39, 39)   DRY( 39, 40)   
    DRY( 40,  1)   DRY( 40,  2)   DRY( 40,  3)   DRY( 40,  4)   DRY( 40,  5)   
    DRY( 40,  6)   DRY( 40,  7)   DRY( 40,  8)   DRY( 40,  9)   DRY( 40, 10)   
    DRY( 40, 11)   DRY( 40, 12)   DRY( 40, 13)   DRY( 40, 14)   DRY( 40, 15)   
    DRY( 40, 16)   DRY( 40, 17)   DRY( 40, 18)   DRY( 40, 19)   DRY( 40, 20)   
    DRY( 40, 21)   DRY( 40, 22)   DRY( 40, 23)   DRY( 40, 24)   DRY( 40, 25)   
    DRY( 40, 26)   DRY( 40, 27)   DRY( 40, 28)   DRY( 40, 29)   DRY( 40, 30)   
    DRY( 40, 31)   DRY( 40, 32)   DRY( 40, 33)   DRY( 40, 34)   DRY( 40, 35)   
    DRY( 40, 36)   DRY( 40, 37)   DRY( 40, 38)   DRY( 40, 39)   DRY( 40, 40)   

 CELL CONVERSIONS FOR ITER.=  1  LAYER=  5  STEP=  1  PERIOD=   1   (ROW,COL)
    DRY(  1,  1)   DRY(  1,  2)   DRY(  1,  3)   DRY(  1,  4)   DRY(  1,  5)   
    DRY(  1,  6)   DRY(  1,  7)   DRY(  1,  8)   DRY(  1,  9)   DRY(  1, 10)   
    DRY(  1, 11)   DRY(  1, 12)   DRY(  1, 13)   DRY(  1, 14)   DRY(  1, 15)   
    DRY(  1, 16)   DRY(  1, 17)   DRY(  1, 18)   DRY(  1, 19)   DRY(  1, 20)   
    DRY(  1, 21)   DRY(  1, 22)   DRY(  1, 23)   DRY(  1, 24)   DRY(  1, 25)   
    DRY(  1, 26)   DRY(  1, 27)   DRY(  1, 28)   DRY(  1, 29)   DRY(  1, 30)   
    DRY(  1, 31)   DRY(  1, 32)   DRY(  1, 33)   DRY(  1, 34)   DRY(  1, 35)   
    DRY(  1, 36)   DRY(  1, 37)   DRY(  1, 38)   DRY(  1, 39)   DRY(  1, 40)   
    DRY(  2,  1)   DRY(  2,  2)   DRY(  2,  3)   DRY(  2,  4)   DRY(  2,  5)   
    DRY(  2,  6)   DRY(  2,  7)   DRY(  2,  8)   DRY(  2,  9)   DRY(  2, 10)   
    DRY(  2, 11)   DRY(  2, 12)   DRY(  2, 13)   DRY(  2, 14)   DRY(  2, 15)   
    DRY(  2, 16)   DRY(  2, 17)   DRY(  2, 18)   DRY(  2, 19)   DRY(  2, 20)   
    DRY(  2, 21)   DRY(  2, 22)   DRY(  2, 23)   DRY(  2, 24)   DRY(  2, 25)   
    DRY(  2, 26)   DRY(  2, 27)   DRY(  2, 28)   DRY(  2, 29)   DRY(  2, 30)   
    DRY(  2, 31)   DRY(  2, 32)   DRY(  2, 33)   DRY(  2, 34)   DRY(  2, 35)   
    DRY(  2, 36)   DRY(  2, 37)   DRY(  2, 38)   DRY(  2, 39)   DRY(  2, 40)   
    DRY(  3,  1)   DRY(  3,  2)   DRY(  3,  3)   DRY(  3,  4)   DRY(  3,  5)   
    DRY(  3,  6)   DRY(  3,  7)   DRY(  3,  8)   DRY(  3,  9)   DRY(  3, 10)   
    DRY(  3, 11)   DRY(  3, 12)   DRY(  3, 13)   DRY(  3, 14)   DRY(  3, 15)   
    DRY(  3, 16)   DRY(  3, 17)   DRY(  3, 18)   DRY(  3, 19)   DRY(  3, 20)   
    DRY(  3, 21)   DRY(  3, 22)   DRY(  3, 23)   DRY(  3, 24)   DRY(  3, 25)   
    DRY(  3, 26)   DRY(  3, 27)   DRY(  3, 28)   DRY(  3, 29)   DRY(  3, 30)   
    DRY(  3, 31)   DRY(  3, 32)   DRY(  3, 33)   DRY(  3, 34)   DRY(  3, 35)   
    DRY(  3, 36)   DRY(  3, 37)   DRY(  3, 38)   DRY(  3, 39)   DRY(  3, 40)   
    DRY(  4,  1)   DRY(  4,  2)   DRY(  4,  3)   DRY(  4,  4)   DRY(  4,  5)   
    DRY(  4,  6)   DRY(  4,  7)   DRY(  4,  8)   DRY(  4,  9)   DRY(  4, 10)   
    DRY(  4, 11)   DRY(  4, 12)   DRY(  4, 13)   DRY(  4, 14)   DRY(  4, 15)   
    DRY(  4, 16)   DRY(  4, 17)   DRY(  4, 18)   DRY(  4, 19)   DRY(  4, 20)   
    DRY(  4, 21)   DRY(  4, 22)   DRY(  4, 23)   DRY(  4, 24)   DRY(  4, 25)   
    DRY(  4, 26)   DRY(  4, 27)   DRY(  4, 28)   DRY(  4, 29)   DRY(  4, 30)   
    DRY(  4, 31)   DRY(  4, 32)   DRY(  4, 33)   DRY(  4, 34)   DRY(  4, 35)   
    DRY(  4, 36)   DRY(  4, 37)   DRY(  4, 38)   DRY(  4, 39)   DRY(  4, 40)   
    DRY(  5,  1)   DRY(  5,  2)   DRY(  5,  3)   DRY(  5,  4)   DRY(  5,  5)   
    DRY(  5,  6)   DRY(  5,  7)   DRY(  5,  8)   DRY(  5,  9)   DRY(  5, 10)   
    DRY(  5, 11)   DRY(  5, 12)   DRY(  5, 13)   DRY(  5, 14)   DRY(  5, 15)   
    DRY(  5, 16)   DRY(  5, 17)   DRY(  5, 18)   DRY(  5, 19)   DRY(  5, 20)   
    DRY(  5, 21)   DRY(  5, 22)   DRY(  5, 23)   DRY(  5, 24)   DRY(  5, 25)   
    DRY(  5, 26)   DRY(  5, 27)   DRY(  5, 28)   DRY(  5, 29)   DRY(  5, 30)   
    DRY(  5, 31)   DRY(  5, 32)   DRY(  5, 33)   DRY(  5, 34)   DRY(  5, 35)   
    DRY(  5, 36)   DRY(  5, 37)   DRY(  5, 38)   DRY(  5, 39)   DRY(  5, 40)   
    DRY(  6,  1)   DRY(  6,  2)   DRY(  6,  3)   DRY(  6,  4)   DRY(  6,  5)   
    DRY(  6,  6)   DRY(  6,  7)   DRY(  6,  8)   DRY(  6,  9)   DRY(  6, 10)   
    DRY(  6, 11)   DRY(  6, 12)   DRY(  6, 13)   DRY(  6, 14)   DRY(  6, 15)   
    DRY(  6, 16)   DRY(  6, 17)   DRY(  6, 18)   DRY(  6, 19)   DRY(  6, 20)   
    DRY(  6, 21)   DRY(  6, 22)   DRY(  6, 23)   DRY(  6, 24)   DRY(  6, 25)   
    DRY(  6, 26)   DRY(  6, 27)   DRY(  6, 28)   DRY(  6, 29)   DRY(  6, 30)   
    DRY(  6, 31)   DRY(  6, 32)   DRY(  6, 33)   DRY(  6, 34)   DRY(  6, 35)   
    DRY(  6, 36)   DRY(  6, 37)   DRY(  6, 38)   DRY(  6, 39)   DRY(  6, 40)   
    DRY(  7,  1)   DRY(  7,  2)   DRY(  7,  3)   DRY(  7,  4)   DRY(  7,  5)   
    DRY(  7,  6)   DRY(  7,  7)   DRY(  7,  8)   DRY(  7,  9)   DRY(  7, 10)   
    DRY(  7, 11)   DRY(  7, 12)   DRY(  7, 13)   DRY(  7, 14)   DRY(  7, 15)   
    DRY(  7, 16)   DRY(  7, 17)   DRY(  7, 18)   DRY(  7, 19)   DRY(  7, 20)   
    DRY(  7, 21)   DRY(  7, 22)   DRY(  7, 23)   DRY(  7, 24)   DRY(  7, 25)   
    DRY(  7, 26)   DRY(  7, 27)   DRY(  7, 28)   DRY(  7, 29)   DRY(  7, 30)   
    DRY(  7, 31)   DRY(  7, 32)   DRY(  7, 33)   DRY(  7, 34)   DRY(  7, 35)   
    DRY(  7, 36)   DRY(  7, 37)   DRY(  7, 38)   DRY(  7, 39)   DRY(  7, 40)   
    DRY(  8,  1)   DRY(  8,  2)   DRY(  8,  3)   DRY(  8,  4)   DRY(  8,  5)   
    DRY(  8,  6)   DRY(  8,  7)   DRY(  8,  8)   DRY(  8,  9)   DRY(  8, 10)   
    DRY(  8, 11)   DRY(  8, 12)   DRY(  8, 13)   DRY(  8, 14)   DRY(  8, 15)   
    DRY(  8, 16)   DRY(  8, 17)   DRY(  8, 18)   DRY(  8, 19)   DRY(  8, 20)   
    DRY(  8, 21)   DRY(  8, 22)   DRY(  8, 23)   DRY(  8, 24)   DRY(  8, 25)   
    DRY(  8, 26)   DRY(  8, 27)   DRY(  8, 28)   DRY(  8, 29)   DRY(  8, 30)   
    DRY(  8, 31)   DRY(  8, 32)   DRY(  8, 33)   DRY(  8, 34)   DRY(  8, 35)   
    DRY(  8, 36)   DRY(  8, 37)   DRY(  8, 38)   DRY(  8, 39)   DRY(  8, 40)   
    DRY(  9,  1)   DRY(  9,  2)   DRY(  9,  3)   DRY(  9,  4)   DRY(  9,  5)   
    DRY(  9,  6)   DRY(  9,  7)   DRY(  9,  8)   DRY(  9,  9)   DRY(  9, 10)   
    DRY(  9, 11)   DRY(  9, 12)   DRY(  9, 13)   DRY(  9, 14)   DRY(  9, 15)   
    DRY(  9, 16)   DRY(  9, 17)   DRY(  9, 18)   DRY(  9, 19)   DRY(  9, 20)   
    DRY(  9, 21)   DRY(  9, 22)   DRY(  9, 23)   DRY(  9, 24)   DRY(  9, 25)   
    DRY(  9, 26)   DRY(  9, 27)   DRY(  9, 28)   DRY(  9, 29)   DRY(  9, 30)   
    DRY(  9, 31)   DRY(  9, 32)   DRY(  9, 33)   DRY(  9, 34)   DRY(  9, 35)   
    DRY(  9, 36)   DRY(  9, 37)   DRY(  9, 38)   DRY(  9, 39)   DRY(  9, 40)   
    DRY( 10,  1)   DRY( 10,  2)   DRY( 10,  3)   DRY( 10,  4)   DRY( 10,  5)   
    DRY( 10,  6)   DRY( 10,  7)   DRY( 10,  8)   DRY( 10,  9)   DRY( 10, 10)   
    DRY( 10, 11)   DRY( 10, 12)   DRY( 10, 13)   DRY( 10, 14)   DRY( 10, 15)   
    DRY( 10, 16)   DRY( 10, 17)   DRY( 10, 18)   DRY( 10, 19)   DRY( 10, 20)   
    DRY( 10, 21)   DRY( 10, 22)   DRY( 10, 23)   DRY( 10, 24)   DRY( 10, 25)   
    DRY( 10, 26)   DRY( 10, 27)   DRY( 10, 28)   DRY( 10, 29)   DRY( 10, 30)   
    DRY( 10, 31)   DRY( 10, 32)   DRY( 10, 33)   DRY( 10, 34)   DRY( 10, 35)   
    DRY( 10, 36)   DRY( 10, 37)   DRY( 10, 38)   DRY( 10, 39)   DRY( 10, 40)   
    DRY( 11,  1)   DRY( 11,  2)   DRY( 11,  3)   DRY( 11,  4)   DRY( 11,  5)   
    DRY( 11,  6)   DRY( 11,  7)   DRY( 11,  8)   DRY( 11,  9)   DRY( 11, 10)   
    DRY( 11, 11)   DRY( 11, 12)   DRY( 11, 13)   DRY( 11, 14)   DRY( 11, 15)   
    DRY( 11, 16)   DRY( 11, 17)   DRY( 11, 18)   DRY( 11, 19)   DRY( 11, 20)   
    DRY( 11, 21)   DRY( 11, 22)   DRY( 11, 23)   DRY( 11, 24)   DRY( 11, 25)   
    DRY( 11, 26)   DRY( 11, 27)   DRY( 11, 28)   DRY( 11, 29)   DRY( 11, 30)   
    DRY( 11, 31)   DRY( 11, 32)   DRY( 11, 33)   DRY( 11, 34)   DRY( 11, 35)   
    DRY( 11, 36)   DRY( 11, 37)   DRY( 11, 38)   DRY( 11, 39)   DRY( 11, 40)   
    DRY( 12,  1)   DRY( 12,  2)   DRY( 12,  3)   DRY( 12,  4)   DRY( 12,  5)   
    DRY( 12,  6)   DRY( 12,  7)   DRY( 12,  8)   DRY( 12,  9)   DRY( 12, 10)   
    DRY( 12, 11)   DRY( 12, 12)   DRY( 12, 13)   DRY( 12, 14)   DRY( 12, 15)   
    DRY( 12, 16)   DRY( 12, 17)   DRY( 12, 18)   DRY( 12, 19)   DRY( 12, 20)   
    DRY( 12, 21)   DRY( 12, 22)   DRY( 12, 23)   DRY( 12, 24)   DRY( 12, 25)   
    DRY( 12, 26)   DRY( 12, 27)   DRY( 12, 28)   DRY( 12, 29)   DRY( 12, 30)   
    DRY( 12, 31)   DRY( 12, 32)   DRY( 12, 33)   DRY( 12, 34)   DRY( 12, 35)   
    DRY( 12, 36)   DRY( 12, 37)   DRY( 12, 38)   DRY( 12, 39)   DRY( 12, 40)   
    DRY( 13,  1)   DRY( 13,  2)   DRY( 13,  3)   DRY( 13,  4)   DRY( 13,  5)   
    DRY( 13,  6)   DRY( 13,  7)   DRY( 13,  8)   DRY( 13,  9)   DRY( 13, 10)   
    DRY( 13, 11)   DRY( 13, 12)   DRY( 13, 13)   DRY( 13, 14)   DRY( 13, 15)   
    DRY( 13, 16)   DRY( 13, 17)   DRY( 13, 18)   DRY( 13, 19)   DRY( 13, 20)   
    DRY( 13, 21)   DRY( 13, 22)   DRY( 13, 23)   DRY( 13, 24)   DRY( 13, 25)   
    DRY( 13, 26)   DRY( 13, 27)   DRY( 13, 28)   DRY( 13, 29)   DRY( 13, 30)   
    DRY( 13, 31)   DRY( 13, 32)   DRY( 13, 33)   DRY( 13, 34)   DRY( 13, 35)   
    DRY( 13, 36)   DRY( 13, 37)   DRY( 13, 38)   DRY( 13, 39)   DRY( 13, 40)   
    DRY( 14,  1)   DRY( 14,  2)   DRY( 14,  3)   DRY( 14,  4)   DRY( 14,  5)   
    DRY( 14,  6)   DRY( 14,  7)   DRY( 14,  8)   DRY( 14,  9)   DRY( 14, 10)   
    DRY( 14, 11)   DRY( 14, 12)   DRY( 14, 13)   DRY( 14, 14)   DRY( 14, 15)   
    DRY( 14, 16)   DRY( 14, 17)   DRY( 14, 18)   DRY( 14, 19)   DRY( 14, 20)   
    DRY( 14, 21)   DRY( 14, 22)   DRY( 14, 23)   DRY( 14, 24)   DRY( 14, 25)   
    DRY( 14, 26)   DRY( 14, 27)   DRY( 14, 28)   DRY( 14, 29)   DRY( 14, 30)   
    DRY( 14, 31)   DRY( 14, 32)   DRY( 14, 33)   DRY( 14, 34)   DRY( 14, 35)   
    DRY( 14, 36)   DRY( 14, 37)   DRY( 14, 38)   DRY( 14, 39)   DRY( 14, 40)   
    DRY( 15,  1)   DRY( 15,  2)   DRY( 15,  3)   DRY( 15,  4)   DRY( 15,  5)   
    DRY( 15,  6)   DRY( 15,  7)   DRY( 15,  8)   DRY( 15,  9)   DRY( 15, 10)   
    DRY( 15, 11)   DRY( 15, 12)   DRY( 15, 13)   DRY( 15, 14)   DRY( 15, 15)   
    DRY( 15, 16)   DRY( 15, 17)   DRY( 15, 18)   DRY( 15, 19)   DRY( 15, 20)   
    DRY( 15, 21)   DRY( 15, 22)   DRY( 15, 23)   DRY( 15, 24)   DRY( 15, 25)   
    DRY( 15, 26)   DRY( 15, 27)   DRY( 15, 28)   DRY( 15, 29)   DRY( 15, 30)   
    DRY( 15, 31)   DRY( 15, 32)   DRY( 15, 33)   DRY( 15, 34)   DRY( 15, 35)   
    DRY( 15, 36)   DRY( 15, 37)   DRY( 15, 38)   DRY( 15, 39)   DRY( 15, 40)   
    DRY( 16,  1)   DRY( 16,  2)   DRY( 16,  3)   DRY( 16,  4)   DRY( 16,  5)   
    DRY( 16,  6)   DRY( 16,  7)   DRY( 16,  8)   DRY( 16,  9)   DRY( 16, 10)   
    DRY( 16, 11)   DRY( 16, 12)   DRY( 16, 13)   DRY( 16, 14)   DRY( 16, 15)   
    DRY( 16, 16)   DRY( 16, 17)   DRY( 16, 18)   DRY( 16, 19)   DRY( 16, 20)   
    DRY( 16, 21)   DRY( 16, 22)   DRY( 16, 23)   DRY( 16, 24)   DRY( 16, 25)   
    DRY( 16, 26)   DRY( 16, 27)   DRY( 16, 28)   DRY( 16, 29)   DRY( 16, 30)   
    DRY( 16, 31)   DRY( 16, 32)   DRY( 16, 33)   DRY( 16, 34)   DRY( 16, 35)   
    DRY( 16, 36)   DRY( 16, 37)   DRY( 16, 38)   DRY( 16, 39)   DRY( 16, 40)   
    DRY( 17,  1)   DRY( 17,  2)   DRY( 17,  3)   DRY( 17,  4)   DRY( 17,  5)   
    DRY( 17,  6)   DRY( 17,  7)   DRY( 17,  8)   DRY( 17,  9)   DRY( 17, 10)   
    DRY( 17, 11)   DRY( 17, 12)   DRY( 17, 13)   DRY( 17, 14)   DRY( 17, 15)   
    DRY( 17, 16)   DRY( 17, 17)   DRY( 17, 18)   DRY( 17, 19)   DRY( 17, 20)   
    DRY( 17, 21)   DRY( 17, 22)   DRY( 17, 23)   DRY( 17, 24)   DRY( 17, 25)   
    DRY( 17, 26)   DRY( 17, 27)   DRY( 17, 28)   DRY( 17, 29)   DRY( 17, 30)   
    DRY( 17, 31)   DRY( 17, 32)   DRY( 17, 33)   DRY( 17, 34)   DRY( 17, 35)   
    DRY( 17, 36)   DRY( 17, 37)   DRY( 17, 38)   DRY( 17, 39)   DRY( 17, 40)   
    DRY( 18,  1)   DRY( 18,  2)   DRY( 18,  3)   DRY( 18,  4)   DRY( 18,  5)   
    DRY( 18,  6)   DRY( 18,  7)   DRY( 18,  8)   DRY( 18,  9)   DRY( 18, 10)   
    DRY( 18, 11)   DRY( 18, 12)   DRY( 18, 13)   DRY( 18, 14)   DRY( 18, 15)   
    DRY( 18, 16)   DRY( 18, 17)   DRY( 18, 18)   DRY( 18, 19)   DRY( 18, 20)   
    DRY( 18, 21)   DRY( 18, 22)   DRY( 18, 23)   DRY( 18, 24)   DRY( 18, 25)   
    DRY( 18, 26)   DRY( 18, 27)   DRY( 18, 28)   DRY( 18, 29)   DRY( 18, 30)   
    DRY( 18, 31)   DRY( 18, 32)   DRY( 18, 33)   DRY( 18, 34)   DRY( 18, 35)   
    DRY( 18, 36)   DRY( 18, 37)   DRY( 18, 38)   DRY( 18, 39)   DRY( 18, 40)   
    DRY( 19,  1)   DRY( 19,  2)   DRY( 19,  3)   DRY( 19,  4)   DRY( 19,  5)   
    DRY( 19,  6)   DRY( 19,  7)   DRY( 19,  8)   DRY( 19,  9)   DRY( 19, 10)   
    DRY( 19, 11)   DRY( 19, 12)   DRY( 19, 13)   DRY( 19, 14)   DRY( 19, 15)   
    DRY( 19, 16)   DRY( 19, 17)   DRY( 19, 18)   DRY( 19, 19)   DRY( 19, 20)   
    DRY( 19, 21)   DRY( 19, 22)   DRY( 19, 23)   DRY( 19, 24)   DRY( 19, 25)   
    DRY( 19, 26)   DRY( 19, 27)   DRY( 19, 28)   DRY( 19, 29)   DRY( 19, 30)   
    DRY( 19, 31)   DRY( 19, 32)   DRY( 19, 33)   DRY( 19, 34)   DRY( 19, 35)   
    DRY( 19, 36)   DRY( 19, 37)   DRY( 19, 38)   DRY( 19, 39)   DRY( 19, 40)   
    DRY( 20,  1)   DRY( 20,  2)   DRY( 20,  3)   DRY( 20,  4)   DRY( 20,  5)   
    DRY( 20,  6)   DRY( 20,  7)   DRY( 20,  8)   DRY( 20,  9)   DRY( 20, 10)   
    DRY( 20, 11)   DRY( 20, 12)   DRY( 20, 13)   DRY( 20, 14)   DRY( 20, 15)   
    DRY( 20, 16)   DRY( 20, 17)   DRY( 20, 18)   DRY( 20, 19)   DRY( 20, 20)   
    DRY( 20, 21)   DRY( 20, 22)   DRY( 20, 23)   DRY( 20, 24)   DRY( 20, 25)   
    DRY( 20, 26)   DRY( 20, 27)   DRY( 20, 28)   DRY( 20, 29)   DRY( 20, 30)   
    DRY( 20, 31)   DRY( 20, 32)   DRY( 20, 33)   DRY( 20, 34)   DRY( 20, 35)   
    DRY( 20, 36)   DRY( 20, 37)   DRY( 20, 38)   DRY( 20, 39)   DRY( 20, 40)   
    DRY( 21,  1)   DRY( 21,  2)   DRY( 21,  3)   DRY( 21,  4)   DRY( 21,  5)   
    DRY( 21,  6)   DRY( 21,  7)   DRY( 21,  8)   DRY( 21,  9)   DRY( 21, 10)   
    DRY( 21, 11)   DRY( 21, 12)   DRY( 21, 13)   DRY( 21, 14)   DRY( 21, 15)   
    DRY( 21, 16)   DRY( 21, 17)   DRY( 21, 18)   DRY( 21, 19)   DRY( 21, 20)   
    DRY( 21, 21)   DRY( 21, 22)   DRY( 21, 23)   DRY( 21, 24)   DRY( 21, 25)   
    DRY( 21, 26)   DRY( 21, 27)   DRY( 21, 28)   DRY( 21, 29)   DRY( 21, 30)   
    DRY( 21, 31)   DRY( 21, 32)   DRY( 21, 33)   DRY( 21, 34)   DRY( 21, 35)   
    DRY( 21, 36)   DRY( 21, 37)   DRY( 21, 38)   DRY( 21, 39)   DRY( 21, 40)   
    DRY( 22,  1)   DRY( 22,  2)   DRY( 22,  3)   DRY( 22,  4)   DRY( 22,  5)   
    DRY( 22,  6)   DRY( 22,  7)   DRY( 22,  8)   DRY( 22,  9)   DRY( 22, 10)   
    DRY( 22, 11)   DRY( 22, 12)   DRY( 22, 13)   DRY( 22, 14)   DRY( 22, 15)   
    DRY( 22, 16)   DRY( 22, 17)   DRY( 22, 18)   DRY( 22, 19)   DRY( 22, 20)   
    DRY( 22, 21)   DRY( 22, 22)   DRY( 22, 23)   DRY( 22, 24)   DRY( 22, 25)   
    DRY( 22, 26)   DRY( 22, 27)   DRY( 22, 28)   DRY( 22, 29)   DRY( 22, 30)   
    DRY( 22, 31)   DRY( 22, 32)   DRY( 22, 33)   DRY( 22, 34)   DRY( 22, 35)   
    DRY( 22, 36)   DRY( 22, 37)   DRY( 22, 38)   DRY( 22, 39)   DRY( 22, 40)   
    DRY( 23,  1)   DRY( 23,  2)   DRY( 23,  3)   DRY( 23,  4)   DRY( 23,  5)   
    DRY( 23,  6)   DRY( 23,  7)   DRY( 23,  8)   DRY( 23,  9)   DRY( 23, 10)   
    DRY( 23, 11)   DRY( 23, 12)   DRY( 23, 13)   DRY( 23, 14)   DRY( 23, 15)   
    DRY( 23, 16)   DRY( 23, 17)   DRY( 23, 18)   DRY( 23, 19)   DRY( 23, 20)   
    DRY( 23, 21)   DRY( 23, 22)   DRY( 23, 23)   DRY( 23, 24)   DRY( 23, 25)   
    DRY( 23, 26)   DRY( 23, 27)   DRY( 23, 28)   DRY( 23, 29)   DRY( 23, 30)   
    DRY( 23, 31)   DRY( 23, 32)   DRY( 23, 33)   DRY( 23, 34)   DRY( 23, 35)   
    DRY( 23, 36)   DRY( 23, 37)   DRY( 23, 38)   DRY( 23, 39)   DRY( 23, 40)   
    DRY( 24,  1)   DRY( 24,  2)   DRY( 24,  3)   DRY( 24,  4)   DRY( 24,  5)   
    DRY( 24,  6)   DRY( 24,  7)   DRY( 24,  8)   DRY( 24,  9)   DRY( 24, 10)   
    DRY( 24, 11)   DRY( 24, 12)   DRY( 24, 13)   DRY( 24, 14)   DRY( 24, 15)   
    DRY( 24, 16)   DRY( 24, 17)   DRY( 24, 18)   DRY( 24, 19)   DRY( 24, 20)   
    DRY( 24, 21)   DRY( 24, 22)   DRY( 24, 23)   DRY( 24, 24)   DRY( 24, 25)   
    DRY( 24, 26)   DRY( 24, 27)   DRY( 24, 28)   DRY( 24, 29)   DRY( 24, 30)   
    DRY( 24, 31)   DRY( 24, 32)   DRY( 24, 33)   DRY( 24, 34)   DRY( 24, 35)   
    DRY( 24, 36)   DRY( 24, 37)   DRY( 24, 38)   DRY( 24, 39)   DRY( 24, 40)   
    DRY( 25,  1)   DRY( 25,  2)   DRY( 25,  3)   DRY( 25,  4)   DRY( 25,  5)   
    DRY( 25,  6)   DRY( 25,  7)   DRY( 25,  8)   DRY( 25,  9)   DRY( 25, 10)   
    DRY( 25, 11)   DRY( 25, 12)   DRY( 25, 13)   DRY( 25, 14)   DRY( 25, 15)   
    DRY( 25, 16)   DRY( 25, 17)   DRY( 25, 18)   DRY( 25, 19)   DRY( 25, 20)   
    DRY( 25, 21)   DRY( 25, 22)   DRY( 25, 23)   DRY( 25, 24)   DRY( 25, 25)   
    DRY( 25, 26)   DRY( 25, 27)   DRY( 25, 28)   DRY( 25, 29)   DRY( 25, 30)   
    DRY( 25, 31)   DRY( 25, 32)   DRY( 25, 33)   DRY( 25, 34)   DRY( 25, 35)   
    DRY( 25, 36)   DRY( 25, 37)   DRY( 25, 38)   DRY( 25, 39)   DRY( 25, 40)   
    DRY( 26,  1)   DRY( 26,  2)   DRY( 26,  3)   DRY( 26,  4)   DRY( 26,  5)   
    DRY( 26,  6)   DRY( 26,  7)   DRY( 26,  8)   DRY( 26,  9)   DRY( 26, 10)   
    DRY( 26, 11)   DRY( 26, 12)   DRY( 26, 13)   DRY( 26, 14)   DRY( 26, 15)   
    DRY( 26, 16)   DRY( 26, 17)   DRY( 26, 18)   DRY( 26, 19)   DRY( 26, 20)   
    DRY( 26, 21)   DRY( 26, 22)   DRY( 26, 23)   DRY( 26, 24)   DRY( 26, 25)   
    DRY( 26, 26)   DRY( 26, 27)   DRY( 26, 28)   DRY( 26, 29)   DRY( 26, 30)   
    DRY( 26, 31)   DRY( 26, 32)   DRY( 26, 33)   DRY( 26, 34)   DRY( 26, 35)   
    DRY( 26, 36)   DRY( 26, 37)   DRY( 26, 38)   DRY( 26, 39)   DRY( 26, 40)   
    DRY( 27,  1)   DRY( 27,  2)   DRY( 27,  3)   DRY( 27,  4)   DRY( 27,  5)   
    DRY( 27,  6)   DRY( 27,  7)   DRY( 27,  8)   DRY( 27,  9)   DRY( 27, 10)   
    DRY( 27, 11)   DRY( 27, 12)   DRY( 27, 13)   DRY( 27, 14)   DRY( 27, 15)   
    DRY( 27, 16)   DRY( 27, 17)   DRY( 27, 18)   DRY( 27, 19)   DRY( 27, 20)   
    DRY( 27, 21)   DRY( 27, 22)   DRY( 27, 23)   DRY( 27, 24)   DRY( 27, 25)   
    DRY( 27, 26)   DRY( 27, 27)   DRY( 27, 28)   DRY( 27, 29)   DRY( 27, 30)   
    DRY( 27, 31)   DRY( 27, 32)   DRY( 27, 33)   DRY( 27, 34)   DRY( 27, 35)   
    DRY( 27, 36)   DRY( 27, 37)   DRY( 27, 38)   DRY( 27, 39)   DRY( 27, 40)   
    DRY( 28,  1)   DRY( 28,  2)   DRY( 28,  3)   DRY( 28,  4)   DRY( 28,  5)   
    DRY( 28,  6)   DRY( 28,  7)   DRY( 28,  8)   DRY( 28,  9)   DRY( 28, 10)   
    DRY( 28, 11)   DRY( 28, 12)   DRY( 28, 13)   DRY( 28, 14)   DRY( 28, 15)   
    DRY( 28, 16)   DRY( 28, 17)   DRY( 28, 18)   DRY( 28, 19)   DRY( 28, 20)   
    DRY( 28, 21)   DRY( 28, 22)   DRY( 28, 23)   DRY( 28, 24)   DRY( 28, 25)   
    DRY( 28, 26)   DRY( 28, 27)   DRY( 28, 28)   DRY( 28, 29)   DRY( 28, 30)   
    DRY( 28, 31)   DRY( 28, 32)   DRY( 28, 33)   DRY( 28, 34)   DRY( 28, 35)   
    DRY( 28, 36)   DRY( 28, 37)   DRY( 28, 38)   DRY( 28, 39)   DRY( 28, 40)   
    DRY( 29,  1)   DRY( 29,  2)   DRY( 29,  3)   DRY( 29,  4)   DRY( 29,  5)   
    DRY( 29,  6)   DRY( 29,  7)   DRY( 29,  8)   DRY( 29,  9)   DRY( 29, 10)   
    DRY( 29, 11)   DRY( 29, 12)   DRY( 29, 13)   DRY( 29, 14)   DRY( 29, 15)   
    DRY( 29, 16)   DRY( 29, 17)   DRY( 29, 18)   DRY( 29, 19)   DRY( 29, 20)   
    DRY( 29, 21)   DRY( 29, 22)   DRY( 29, 23)   DRY( 29, 24)   DRY( 29, 25)   
    DRY( 29, 26)   DRY( 29, 27)   DRY( 29, 28)   DRY( 29, 29)   DRY( 29, 30)   
    DRY( 29, 31)   DRY( 29, 32)   DRY( 29, 33)   DRY( 29, 34)   DRY( 29, 35)   
    DRY( 29, 36)   DRY( 29, 37)   DRY( 29, 38)   DRY( 29, 39)   DRY( 29, 40)   
    DRY( 30,  1)   DRY( 30,  2)   DRY( 30,  3)   DRY( 30,  4)   DRY( 30,  5)   
    DRY( 30,  6)   DRY( 30,  7)   DRY( 30,  8)   DRY( 30,  9)   DRY( 30, 10)   
    DRY( 30, 11)   DRY( 30, 12)   DRY( 30, 13)   DRY( 30, 14)   DRY( 30, 15)   
    DRY( 30, 16)   DRY( 30, 17)   DRY( 30, 18)   DRY( 30, 19)   DRY( 30, 20)   
    DRY( 30, 21)   DRY( 30, 22)   DRY( 30, 23)   DRY( 30, 24)   DRY( 30, 25)   
    DRY( 30, 26)   DRY( 30, 27)   DRY( 30, 28)   DRY( 30, 29)   DRY( 30, 30)   
    DRY( 30, 31)   DRY( 30, 32)   DRY( 30, 33)   DRY( 30, 34)   DRY( 30, 35)   
    DRY( 30, 36)   DRY( 30, 37)   DRY( 30, 38)   DRY( 30, 39)   DRY( 30, 40)   
    DRY( 31,  1)   DRY( 31,  2)   DRY( 31,  3)   DRY( 31,  4)   DRY( 31,  5)   
    DRY( 31,  6)   DRY( 31,  7)   DRY( 31,  8)   DRY( 31,  9)   DRY( 31, 10)   
    DRY( 31, 11)   DRY( 31, 12)   DRY( 31, 13)   DRY( 31, 14)   DRY( 31, 15)   
    DRY( 31, 16)   DRY( 31, 17)   DRY( 31, 18)   DRY( 31, 19)   DRY( 31, 20)   
    DRY( 31, 21)   DRY( 31, 22)   DRY( 31, 23)   DRY( 31, 24)   DRY( 31, 25)   
    DRY( 31, 26)   DRY( 31, 27)   DRY( 31, 28)   DRY( 31, 29)   DRY( 31, 30)   
    DRY( 31, 31)   DRY( 31, 32)   DRY( 31, 33)   DRY( 31, 34)   DRY( 31, 35)   
    DRY( 31, 36)   DRY( 31, 37)   DRY( 31, 38)   DRY( 31, 39)   DRY( 31, 40)   
    DRY( 32,  1)   DRY( 32,  2)   DRY( 32,  3)   DRY( 32,  4)   DRY( 32,  5)   
    DRY( 32,  6)   DRY( 32,  7)   DRY( 32,  8)   DRY( 32,  9)   DRY( 32, 10)   
    DRY( 32, 11)   DRY( 32, 12)   DRY( 32, 13)   DRY( 32, 14)   DRY( 32, 15)   
    DRY( 32, 16)   DRY( 32, 17)   DRY( 32, 18)   DRY( 32, 19)   DRY( 32, 20)   
    DRY( 32, 21)   DRY( 32, 22)   DRY( 32, 23)   DRY( 32, 24)   DRY( 32, 25)   
    DRY( 32, 26)   DRY( 32, 27)   DRY( 32, 28)   DRY( 32, 29)   DRY( 32, 30)   
    DRY( 32, 31)   DRY( 32, 32)   DRY( 32, 33)   DRY( 32, 34)   DRY( 32, 35)   
    DRY( 32, 36)   DRY( 32, 37)   DRY( 32, 38)   DRY( 32, 39)   DRY( 32, 40)   
    DRY( 33,  1)   DRY( 33,  2)   DRY( 33,  3)   DRY( 33,  4)   DRY( 33,  5)   
    DRY( 33,  6)   DRY( 33,  7)   DRY( 33,  8)   DRY( 33,  9)   DRY( 33, 10)   
    DRY( 33, 11)   DRY( 33, 12)   DRY( 33, 13)   DRY( 33, 14)   DRY( 33, 15)   
    DRY( 33, 16)   DRY( 33, 17)   DRY( 33, 18)   DRY( 33, 19)   DRY( 33, 20)   
    DRY( 33, 21)   DRY( 33, 22)   DRY( 33, 23)   DRY( 33, 24)   DRY( 33, 25)   
    DRY( 33, 26)   DRY( 33, 27)   DRY( 33, 28)   DRY( 33, 29)   DRY( 33, 30)   
    DRY( 33, 31)   DRY( 33, 32)   DRY( 33, 33)   DRY( 33, 34)   DRY( 33, 35)   
    DRY( 33, 36)   DRY( 33, 37)   DRY( 33, 38)   DRY( 33, 39)   DRY( 33, 40)   
    DRY( 34,  1)   DRY( 34,  2)   DRY( 34,  3)   DRY( 34,  4)   DRY( 34,  5)   
    DRY( 34,  6)   DRY( 34,  7)   DRY( 34,  8)   DRY( 34,  9)   DRY( 34, 10)   
    DRY( 34, 11)   DRY( 34, 12)   DRY( 34, 13)   DRY( 34, 14)   DRY( 34, 15)   
    DRY( 34, 16)   DRY( 34, 17)   DRY( 34, 18)   DRY( 34, 19)   DRY( 34, 20)   
    DRY( 34, 21)   DRY( 34, 22)   DRY( 34, 23)   DRY( 34, 24)   DRY( 34, 25)   
    DRY( 34, 26)   DRY( 34, 27)   DRY( 34, 28)   DRY( 34, 29)   DRY( 34, 30)   
    DRY( 34, 31)   DRY( 34, 32)   DRY( 34, 33)   DRY( 34, 34)   DRY( 34, 35)   
    DRY( 34, 36)   DRY( 34, 37)   DRY( 34, 38)   DRY( 34, 39)   DRY( 34, 40)   
    DRY( 35,  1)   DRY( 35,  2)   DRY( 35,  3)   DRY( 35,  4)   DRY( 35,  5)   
    DRY( 35,  6)   DRY( 35,  7)   DRY( 35,  8)   DRY( 35,  9)   DRY( 35, 10)   
    DRY( 35, 11)   DRY( 35, 12)   DRY( 35, 13)   DRY( 35, 14)   DRY( 35, 15)   
    DRY( 35, 16)   DRY( 35, 17)   DRY( 35, 18)   DRY( 35, 19)   DRY( 35, 20)   
    DRY( 35, 21)   DRY( 35, 22)   DRY( 35, 23)   DRY( 35, 24)   DRY( 35, 25)   
    DRY( 35, 26)   DRY( 35, 27)   DRY( 35, 28)   DRY( 35, 29)   DRY( 35, 30)   
    DRY( 35, 31)   DRY( 35, 32)   DRY( 35, 33)   DRY( 35, 34)   DRY( 35, 35)   
    DRY( 35, 36)   DRY( 35, 37)   DRY( 35, 38)   DRY( 35, 39)   DRY( 35, 40)   
    DRY( 36,  1)   DRY( 36,  2)   DRY( 36,  3)   DRY( 36,  4)   DRY( 36,  5)   
    DRY( 36,  6)   DRY( 36,  7)   DRY( 36,  8)   DRY( 36,  9)   DRY( 36, 10)   
    DRY( 36, 11)   DRY( 36, 12)   DRY( 36, 13)   DRY( 36, 14)   DRY( 36, 15)   
    DRY( 36, 16)   DRY( 36, 17)   DRY( 36, 18)   DRY( 36, 19)   DRY( 36, 20)   
    DRY( 36, 21)   DRY( 36, 22)   DRY( 36, 23)   DRY( 36, 24)   DRY( 36, 25)   
    DRY( 36, 26)   DRY( 36, 27)   DRY( 36, 28)   DRY( 36, 29)   DRY( 36, 30)   
    DRY( 36, 31)   DRY( 36, 32)   DRY( 36, 33)   DRY( 36, 34)   DRY( 36, 35)   
    DRY( 36, 36)   DRY( 36, 37)   DRY( 36, 38)   DRY( 36, 39)   DRY( 36, 40)   
    DRY( 37,  1)   DRY( 37,  2)   DRY( 37,  3)   DRY( 37,  4)   DRY( 37,  5)   
    DRY( 37,  6)   DRY( 37,  7)   DRY( 37,  8)   DRY( 37,  9)   DRY( 37, 10)   
    DRY( 37, 11)   DRY( 37, 12)   DRY( 37, 13)   DRY( 37, 14)   DRY( 37, 15)   
    DRY( 37, 16)   DRY( 37, 17)   DRY( 37, 18)   DRY( 37, 19)   DRY( 37, 20)   
    DRY( 37, 21)   DRY( 37, 22)   DRY( 37, 23)   DRY( 37, 24)   DRY( 37, 25)   
    DRY( 37, 26)   DRY( 37, 27)   DRY( 37, 28)   DRY( 37, 29)   DRY( 37, 30)   
    DRY( 37, 31)   DRY( 37, 32)   DRY( 37, 33)   DRY( 37, 34)   DRY( 37, 35)   
    DRY( 37, 36)   DRY( 37, 37)   DRY( 37, 38)   DRY( 37, 39)   DRY( 37, 40)   
    DRY( 38,  1)   DRY( 38,  2)   DRY( 38,  3)   DRY( 38,  4)   DRY( 38,  5)   
    DRY( 38,  6)   DRY( 38,  7)   DRY( 38,  8)   DRY( 38,  9)   DRY( 38, 10)   
    DRY( 38, 11)   DRY( 38, 12)   DRY( 38, 13)   DRY( 38, 14)   DRY( 38, 15)   
    DRY( 38, 16)   DRY( 38, 17)   DRY( 38, 18)   DRY( 38, 19)   DRY( 38, 20)   
    DRY( 38, 21)   DRY( 38, 22)   DRY( 38, 23)   DRY( 38, 24)   DRY( 38, 25)   
    DRY( 38, 26)   DRY( 38, 27)   DRY( 38, 28)   DRY( 38, 29)   DRY( 38, 30)   
    DRY( 38, 31)   DRY( 38, 32)   DRY( 38, 33)   DRY( 38, 34)   DRY( 38, 35)   
    DRY( 38, 36)   DRY( 38, 37)   DRY( 38, 38)   DRY( 38, 39)   DRY( 38, 40)   
    DRY( 39,  1)   DRY( 39,  2)   DRY( 39,  3)   DRY( 39,  4)   DRY( 39,  5)   
    DRY( 39,  6)   DRY( 39,  7)   DRY( 39,  8)   DRY( 39,  9)   DRY( 39, 10)   
    DRY( 39, 11)   DRY( 39, 12)   DRY( 39, 13)   DRY( 39, 14)   DRY( 39, 15)   
    DRY( 39, 16)   DRY( 39, 17)   DRY( 39, 18)   DRY( 39, 19)   DRY( 39, 20)   
    DRY( 39, 21)   DRY( 39, 22)   DRY( 39, 23)   DRY( 39, 24)   DRY( 39, 25)   
    DRY( 39, 26)   DRY( 39, 27)   DRY( 39, 28)   DRY( 39, 29)   DRY( 39, 30)   
    DRY( 39, 31)   DRY( 39, 32)   DRY( 39, 33)   DRY( 39, 34)   DRY( 39, 35)   
    DRY( 39, 36)   DRY( 39, 37)   DRY( 39, 38)   DRY( 39, 39)   DRY( 39, 40)   
    DRY( 40,  1)   DRY( 40,  2)   DRY( 40,  3)   DRY( 40,  4)   DRY( 40,  5)   
    DRY( 40,  6)   DRY( 40,  7)   DRY( 40,  8)   DRY( 40,  9)   DRY( 40, 10)   
    DRY( 40, 11)   DRY( 40, 12)   DRY( 40, 13)   DRY( 40, 14)   DRY( 40, 15)   
    DRY( 40, 16)   DRY( 40, 17)   DRY( 40, 18)   DRY( 40, 19)   DRY( 40, 20)   
    DRY( 40, 21)   DRY( 40, 22)   DRY( 40, 23)   DRY( 40, 24)   DRY( 40, 25)   
    DRY( 40, 26)   DRY( 40, 27)   DRY( 40, 28)   DRY( 40, 29)   DRY( 40, 30)   
    DRY( 40, 31)   DRY( 40, 32)   DRY( 40, 33)   DRY( 40, 34)   DRY( 40, 35)   
    DRY( 40, 36)   DRY( 40, 37)   DRY( 40, 38)   DRY( 40, 39)   DRY( 40, 40)   

 CELL CONVERSIONS FOR ITER.=  1  LAYER=  6  STEP=  1  PERIOD=   1   (ROW,COL)
    DRY(  1,  1)   DRY(  1,  2)   DRY(  1,  3)   DRY(  1,  4)   DRY(  1,  5)   
    DRY(  1,  6)   DRY(  1,  7)   DRY(  1,  8)   DRY(  1,  9)   DRY(  1, 10)   
    DRY(  1, 11)   DRY(  1, 12)   DRY(  1, 13)   DRY(  1, 14)   DRY(  1, 15)   
    DRY(  1, 16)   DRY(  1, 17)   DRY(  1, 18)   DRY(  1, 19)   DRY(  1, 20)   
    DRY(  1, 21)   DRY(  1, 22)   DRY(  1, 23)   DRY(  1, 24)   DRY(  1, 25)   
    DRY(  1, 26)   DRY(  1, 27)   DRY(  1, 28)   DRY(  1, 29)   DRY(  1, 30)   
    DRY(  1, 31)   DRY(  1, 32)   DRY(  1, 33)   DRY(  1, 34)   DRY(  1, 35)   
    DRY(  1, 36)   DRY(  1, 37)   DRY(  1, 38)   DRY(  1, 39)   DRY(  1, 40)   
    DRY(  2,  1)   DRY(  2,  2)   DRY(  2,  3)   DRY(  2,  4)   DRY(  2,  5)   
    DRY(  2,  6)   DRY(  2,  7)   DRY(  2,  8)   DRY(  2,  9)   DRY(  2, 10)   
    DRY(  2, 11)   DRY(  2, 12)   DRY(  2, 13)   DRY(  2, 14)   DRY(  2, 15)   
    DRY(  2, 16)   DRY(  2, 17)   DRY(  2, 18)   DRY(  2, 19)   DRY(  2, 20)   
    DRY(  2, 21)   DRY(  2, 22)   DRY(  2, 23)   DRY(  2, 24)   DRY(  2, 25)   
    DRY(  2, 26)   DRY(  2, 27)   DRY(  2, 28)   DRY(  2, 29)   DRY(  2, 30)   
    DRY(  2, 31)   DRY(  2, 32)   DRY(  2, 33)   DRY(  2, 34)   DRY(  2, 35)   
    DRY(  2, 36)   DRY(  2, 37)   DRY(  2, 38)   DRY(  2, 39)   DRY(  2, 40)   
    DRY(  3,  1)   DRY(  3,  2)   DRY(  3,  3)   DRY(  3,  4)   DRY(  3,  5)   
    DRY(  3,  6)   DRY(  3,  7)   DRY(  3,  8)   DRY(  3,  9)   DRY(  3, 10)   
    DRY(  3, 11)   DRY(  3, 12)   DRY(  3, 13)   DRY(  3, 14)   DRY(  3, 15)   
    DRY(  3, 16)   DRY(  3, 17)   DRY(  3, 18)   DRY(  3, 19)   DRY(  3, 20)   
    DRY(  3, 21)   DRY(  3, 22)   DRY(  3, 23)   DRY(  3, 24)   DRY(  3, 25)   
    DRY(  3, 26)   DRY(  3, 27)   DRY(  3, 28)   DRY(  3, 29)   DRY(  3, 30)   
    DRY(  3, 31)   DRY(  3, 32)   DRY(  3, 33)   DRY(  3, 34)   DRY(  3, 35)   
    DRY(  3, 36)   DRY(  3, 37)   DRY(  3, 38)   DRY(  3, 39)   DRY(  3, 40)   
    DRY(  4,  1)   DRY(  4,  2)   DRY(  4,  3)   DRY(  4,  4)   DRY(  4,  5)   
    DRY(  4,  6)   DRY(  4,  7)   DRY(  4,  8)   DRY(  4,  9)   DRY(  4, 10)   
    DRY(  4, 11)   DRY(  4, 12)   DRY(  4, 13)   DRY(  4, 14)   DRY(  4, 15)   
    DRY(  4, 16)   DRY(  4, 17)   DRY(  4, 18)   DRY(  4, 19)   DRY(  4, 20)   
    DRY(  4, 21)   DRY(  4, 22)   DRY(  4, 23)   DRY(  4, 24)   DRY(  4, 25)   
    DRY(  4, 26)   DRY(  4, 27)   DRY(  4, 28)   DRY(  4, 29)   DRY(  4, 30)   
    DRY(  4, 31)   DRY(  4, 32)   DRY(  4, 33)   DRY(  4, 34)   DRY(  4, 35)   
    DRY(  4, 36)   DRY(  4, 37)   DRY(  4, 38)   DRY(  4, 39)   DRY(  4, 40)   
    DRY(  5,  1)   DRY(  5,  2)   DRY(  5,  3)   DRY(  5,  4)   DRY(  5,  5)   
    DRY(  5,  6)   DRY(  5,  7)   DRY(  5,  8)   DRY(  5,  9)   DRY(  5, 10)   
    DRY(  5, 11)   DRY(  5, 12)   DRY(  5, 13)   DRY(  5, 14)   DRY(  5, 15)   
    DRY(  5, 16)   DRY(  5, 17)   DRY(  5, 18)   DRY(  5, 19)   DRY(  5, 20)   
    DRY(  5, 21)   DRY(  5, 22)   DRY(  5, 23)   DRY(  5, 24)   DRY(  5, 25)   
    DRY(  5, 26)   DRY(  5, 27)   DRY(  5, 28)   DRY(  5, 29)   DRY(  5, 30)   
    DRY(  5, 31)   DRY(  5, 32)   DRY(  5, 33)   DRY(  5, 34)   DRY(  5, 35)   
    DRY(  5, 36)   DRY(  5, 37)   DRY(  5, 38)   DRY(  5, 39)   DRY(  5, 40)   
    DRY(  6,  1)   DRY(  6,  2)   DRY(  6,  3)   DRY(  6,  4)   DRY(  6,  5)   
    DRY(  6,  6)   DRY(  6,  7)   DRY(  6,  8)   DRY(  6,  9)   DRY(  6, 10)   
    DRY(  6, 11)   DRY(  6, 12)   DRY(  6, 13)   DRY(  6, 14)   DRY(  6, 15)   
    DRY(  6, 16)   DRY(  6, 17)   DRY(  6, 18)   DRY(  6, 19)   DRY(  6, 20)   
    DRY(  6, 21)   DRY(  6, 22)   DRY(  6, 23)   DRY(  6, 24)   DRY(  6, 25)   
    DRY(  6, 26)   DRY(  6, 27)   DRY(  6, 28)   DRY(  6, 29)   DRY(  6, 30)   
    DRY(  6, 31)   DRY(  6, 32)   DRY(  6, 33)   DRY(  6, 34)   DRY(  6, 35)   
    DRY(  6, 36)   DRY(  6, 37)   DRY(  6, 38)   DRY(  6, 39)   DRY(  6, 40)   
    DRY(  7,  1)   DRY(  7,  2)   DRY(  7,  3)   DRY(  7,  4)   DRY(  7,  5)   
    DRY(  7,  6)   DRY(  7,  7)   DRY(  7,  8)   DRY(  7,  9)   DRY(  7, 10)   
    DRY(  7, 11)   DRY(  7, 12)   DRY(  7, 13)   DRY(  7, 14)   DRY(  7, 15)   
    DRY(  7, 16)   DRY(  7, 17)   DRY(  7, 18)   DRY(  7, 19)   DRY(  7, 20)   
    DRY(  7, 21)   DRY(  7, 22)   DRY(  7, 23)   DRY(  7, 24)   DRY(  7, 25)   
    DRY(  7, 26)   DRY(  7, 27)   DRY(  7, 28)   DRY(  7, 29)   DRY(  7, 30)   
    DRY(  7, 31)   DRY(  7, 32)   DRY(  7, 33)   DRY(  7, 34)   DRY(  7, 35)   
    DRY(  7, 36)   DRY(  7, 37)   DRY(  7, 38)   DRY(  7, 39)   DRY(  7, 40)   
    DRY(  8,  1)   DRY(  8,  2)   DRY(  8,  3)   DRY(  8,  4)   DRY(  8,  5)   
    DRY(  8,  6)   DRY(  8,  7)   DRY(  8,  8)   DRY(  8,  9)   DRY(  8, 10)   
    DRY(  8, 11)   DRY(  8, 12)   DRY(  8, 13)   DRY(  8, 14)   DRY(  8, 15)   
    DRY(  8, 16)   DRY(  8, 17)   DRY(  8, 18)   DRY(  8, 19)   DRY(  8, 20)   
    DRY(  8, 21)   DRY(  8, 22)   DRY(  8, 23)   DRY(  8, 24)   DRY(  8, 25)   
    DRY(  8, 26)   DRY(  8, 27)   DRY(  8, 28)   DRY(  8, 29)   DRY(  8, 30)   
    DRY(  8, 31)   DRY(  8, 32)   DRY(  8, 33)   DRY(  8, 34)   DRY(  8, 35)   
    DRY(  8, 36)   DRY(  8, 37)   DRY(  8, 38)   DRY(  8, 39)   DRY(  8, 40)   
    DRY(  9,  1)   DRY(  9,  2)   DRY(  9,  3)   DRY(  9,  4)   DRY(  9,  5)   
    DRY(  9,  6)   DRY(  9,  7)   DRY(  9,  8)   DRY(  9,  9)   DRY(  9, 10)   
    DRY(  9, 11)   DRY(  9, 12)   DRY(  9, 13)   DRY(  9, 14)   DRY(  9, 15)   
    DRY(  9, 16)   DRY(  9, 17)   DRY(  9, 18)   DRY(  9, 19)   DRY(  9, 20)   
    DRY(  9, 21)   DRY(  9, 22)   DRY(  9, 23)   DRY(  9, 24)   DRY(  9, 25)   
    DRY(  9, 26)   DRY(  9, 27)   DRY(  9, 28)   DRY(  9, 29)   DRY(  9, 30)   
    DRY(  9, 31)   DRY(  9, 32)   DRY(  9, 33)   DRY(  9, 34)   DRY(  9, 35)   
    DRY(  9, 36)   DRY(  9, 37)   DRY(  9, 38)   DRY(  9, 39)   DRY(  9, 40)   
    DRY( 10,  1)   DRY( 10,  2)   DRY( 10,  3)   DRY( 10,  4)   DRY( 10,  5)   
    DRY( 10,  6)   DRY( 10,  7)   DRY( 10,  8)   DRY( 10,  9)   DRY( 10, 10)   
    DRY( 10, 11)   DRY( 10, 12)   DRY( 10, 13)   DRY( 10, 14)   DRY( 10, 15)   
    DRY( 10, 16)   DRY( 10, 17)   DRY( 10, 18)   DRY( 10, 19)   DRY( 10, 20)   
    DRY( 10, 21)   DRY( 10, 22)   DRY( 10, 23)   DRY( 10, 24)   DRY( 10, 25)   
    DRY( 10, 26)   DRY( 10, 27)   DRY( 10, 28)   DRY( 10, 29)   DRY( 10, 30)   
    DRY( 10, 31)   DRY( 10, 32)   DRY( 10, 33)   DRY( 10, 34)   DRY( 10, 35)   
    DRY( 10, 36)   DRY( 10, 37)   DRY( 10, 38)   DRY( 10, 39)   DRY( 10, 40)   
    DRY( 11,  1)   DRY( 11,  2)   DRY( 11,  3)   DRY( 11,  4)   DRY( 11,  5)   
    DRY( 11,  6)   DRY( 11,  7)   DRY( 11,  8)   DRY( 11,  9)   DRY( 11, 10)   
    DRY( 11, 11)   DRY( 11, 12)   DRY( 11, 13)   DRY( 11, 14)   DRY( 11, 15)   
    DRY( 11, 16)   DRY( 11, 17)   DRY( 11, 18)   DRY( 11, 19)   DRY( 11, 20)   
    DRY( 11, 21)   DRY( 11, 22)   DRY( 11, 23)   DRY( 11, 24)   DRY( 11, 25)   
    DRY( 11, 26)   DRY( 11, 27)   DRY( 11, 28)   DRY( 11, 29)   DRY( 11, 30)   
    DRY( 11, 31)   DRY( 11, 32)   DRY( 11, 33)   DRY( 11, 34)   DRY( 11, 35)   
    DRY( 11, 36)   DRY( 11, 37)   DRY( 11, 38)   DRY( 11, 39)   DRY( 11, 40)   
    DRY( 12,  1)   DRY( 12,  2)   DRY( 12,  3)   DRY( 12,  4)   DRY( 12,  5)   
    DRY( 12,  6)   DRY( 12,  7)   DRY( 12,  8)   DRY( 12,  9)   DRY( 12, 10)   
    DRY( 12, 11)   DRY( 12, 12)   DRY( 12, 13)   DRY( 12, 14)   DRY( 12, 15)   
    DRY( 12, 16)   DRY( 12, 17)   DRY( 12, 18)   DRY( 12, 19)   DRY( 12, 20)   
    DRY( 12, 21)   DRY( 12, 22)   DRY( 12, 23)   DRY( 12, 24)   DRY( 12, 25)   
    DRY( 12, 26)   DRY( 12, 27)   DRY( 12, 28)   DRY( 12, 29)   DRY( 12, 30)   
    DRY( 12, 31)   DRY( 12, 32)   DRY( 12, 33)   DRY( 12, 34)   DRY( 12, 35)   
    DRY( 12, 36)   DRY( 12, 37)   DRY( 12, 38)   DRY( 12, 39)   DRY( 12, 40)   
    DRY( 13,  1)   DRY( 13,  2)   DRY( 13,  3)   DRY( 13,  4)   DRY( 13,  5)   
    DRY( 13,  6)   DRY( 13,  7)   DRY( 13,  8)   DRY( 13,  9)   DRY( 13, 10)   
    DRY( 13, 11)   DRY( 13, 12)   DRY( 13, 13)   DRY( 13, 14)   DRY( 13, 15)   
    DRY( 13, 16)   DRY( 13, 17)   DRY( 13, 18)   DRY( 13, 19)   DRY( 13, 20)   
    DRY( 13, 21)   DRY( 13, 22)   DRY( 13, 23)   DRY( 13, 24)   DRY( 13, 25)   
    DRY( 13, 26)   DRY( 13, 27)   DRY( 13, 28)   DRY( 13, 29)   DRY( 13, 30)   
    DRY( 13, 31)   DRY( 13, 32)   DRY( 13, 33)   DRY( 13, 34)   DRY( 13, 35)   
    DRY( 13, 36)   DRY( 13, 37)   DRY( 13, 38)   DRY( 13, 39)   DRY( 13, 40)   
    DRY( 14,  1)   DRY( 14,  2)   DRY( 14,  3)   DRY( 14,  4)   DRY( 14,  5)   
    DRY( 14,  6)   DRY( 14,  7)   DRY( 14,  8)   DRY( 14,  9)   DRY( 14, 10)   
    DRY( 14, 11)   DRY( 14, 12)   DRY( 14, 13)   DRY( 14, 14)   DRY( 14, 15)   
    DRY( 14, 16)   DRY( 14, 17)   DRY( 14, 18)   DRY( 14, 19)   DRY( 14, 20)   
    DRY( 14, 21)   DRY( 14, 22)   DRY( 14, 23)   DRY( 14, 24)   DRY( 14, 25)   
    DRY( 14, 26)   DRY( 14, 27)   DRY( 14, 28)   DRY( 14, 29)   DRY( 14, 30)   
    DRY( 14, 31)   DRY( 14, 32)   DRY( 14, 33)   DRY( 14, 34)   DRY( 14, 35)   
    DRY( 14, 36)   DRY( 14, 37)   DRY( 14, 38)   DRY( 14, 39)   DRY( 14, 40)   
    DRY( 15,  1)   DRY( 15,  2)   DRY( 15,  3)   DRY( 15,  4)   DRY( 15,  5)   
    DRY( 15,  6)   DRY( 15,  7)   DRY( 15,  8)   DRY( 15,  9)   DRY( 15, 10)   
    DRY( 15, 11)   DRY( 15, 12)   DRY( 15, 13)   DRY( 15, 14)   DRY( 15, 15)   
    DRY( 15, 16)   DRY( 15, 17)   DRY( 15, 18)   DRY( 15, 19)   DRY( 15, 20)   
    DRY( 15, 21)   DRY( 15, 22)   DRY( 15, 23)   DRY( 15, 24)   DRY( 15, 25)   
    DRY( 15, 26)   DRY( 15, 27)   DRY( 15, 28)   DRY( 15, 29)   DRY( 15, 30)   
    DRY( 15, 31)   DRY( 15, 32)   DRY( 15, 33)   DRY( 15, 34)   DRY( 15, 35)   
    DRY( 15, 36)   DRY( 15, 37)   DRY( 15, 38)   DRY( 15, 39)   DRY( 15, 40)   
    DRY( 16,  1)   DRY( 16,  2)   DRY( 16,  3)   DRY( 16,  4)   DRY( 16,  5)   
    DRY( 16,  6)   DRY( 16,  7)   DRY( 16,  8)   DRY( 16,  9)   DRY( 16, 10)   
    DRY( 16, 11)   DRY( 16, 12)   DRY( 16, 13)   DRY( 16, 14)   DRY( 16, 15)   
    DRY( 16, 16)   DRY( 16, 17)   DRY( 16, 18)   DRY( 16, 19)   DRY( 16, 20)   
    DRY( 16, 21)   DRY( 16, 22)   DRY( 16, 23)   DRY( 16, 24)   DRY( 16, 25)   
    DRY( 16, 26)   DRY( 16, 27)   DRY( 16, 28)   DRY( 16, 29)   DRY( 16, 30)   
    DRY( 16, 31)   DRY( 16, 32)   DRY( 16, 33)   DRY( 16, 34)   DRY( 16, 35)   
    DRY( 16, 36)   DRY( 16, 37)   DRY( 16, 38)   DRY( 16, 39)   DRY( 16, 40)   
    DRY( 17,  1)   DRY( 17,  2)   DRY( 17,  3)   DRY( 17,  4)   DRY( 17,  5)   
    DRY( 17,  6)   DRY( 17,  7)   DRY( 17,  8)   DRY( 17,  9)   DRY( 17, 10)   
    DRY( 17, 11)   DRY( 17, 12)   DRY( 17, 13)   DRY( 17, 14)   DRY( 17, 15)   
    DRY( 17, 16)   DRY( 17, 17)   DRY( 17, 18)   DRY( 17, 19)   DRY( 17, 20)   
    DRY( 17, 21)   DRY( 17, 22)   DRY( 17, 23)   DRY( 17, 24)   DRY( 17, 25)   
    DRY( 17, 26)   DRY( 17, 27)   DRY( 17, 28)   DRY( 17, 29)   DRY( 17, 30)   
    DRY( 17, 31)   DRY( 17, 32)   DRY( 17, 33)   DRY( 17, 34)   DRY( 17, 35)   
    DRY( 17, 36)   DRY( 17, 37)   DRY( 17, 38)   DRY( 17, 39)   DRY( 17, 40)   
    DRY( 18,  1)   DRY( 18,  2)   DRY( 18,  3)   DRY( 18,  4)   DRY( 18,  5)   
    DRY( 18,  6)   DRY( 18,  7)   DRY( 18,  8)   DRY( 18,  9)   DRY( 18, 10)   
    DRY( 18, 11)   DRY( 18, 12)   DRY( 18, 13)   DRY( 18, 14)   DRY( 18, 15)   
    DRY( 18, 16)   DRY( 18, 17)   DRY( 18, 18)   DRY( 18, 19)   DRY( 18, 20)   
    DRY( 18, 21)   DRY( 18, 22)   DRY( 18, 23)   DRY( 18, 24)   DRY( 18, 25)   
    DRY( 18, 26)   DRY( 18, 27)   DRY( 18, 28)   DRY( 18, 29)   DRY( 18, 30)   
    DRY( 18, 31)   DRY( 18, 32)   DRY( 18, 33)   DRY( 18, 34)   DRY( 18, 35)   
    DRY( 18, 36)   DRY( 18, 37)   DRY( 18, 38)   DRY( 18, 39)   DRY( 18, 40)   
    DRY( 19,  1)   DRY( 19,  2)   DRY( 19,  3)   DRY( 19,  4)   DRY( 19,  5)   
    DRY( 19,  6)   DRY( 19,  7)   DRY( 19,  8)   DRY( 19,  9)   DRY( 19, 10)   
    DRY( 19, 11)   DRY( 19, 12)   DRY( 19, 13)   DRY( 19, 14)   DRY( 19, 15)   
    DRY( 19, 16)   DRY( 19, 17)   DRY( 19, 18)   DRY( 19, 19)   DRY( 19, 20)   
    DRY( 19, 21)   DRY( 19, 22)   DRY( 19, 23)   DRY( 19, 24)   DRY( 19, 25)   
    DRY( 19, 26)   DRY( 19, 27)   DRY( 19, 28)   DRY( 19, 29)   DRY( 19, 30)   
    DRY( 19, 31)   DRY( 19, 32)   DRY( 19, 33)   DRY( 19, 34)   DRY( 19, 35)   
    DRY( 19, 36)   DRY( 19, 37)   DRY( 19, 38)   DRY( 19, 39)   DRY( 19, 40)   
    DRY( 20,  1)   DRY( 20,  2)   DRY( 20,  3)   DRY( 20,  4)   DRY( 20,  5)   
    DRY( 20,  6)   DRY( 20,  7)   DRY( 20,  8)   DRY( 20,  9)   DRY( 20, 10)   
    DRY( 20, 11)   DRY( 20, 12)   DRY( 20, 13)   DRY( 20, 14)   DRY( 20, 15)   
    DRY( 20, 16)   DRY( 20, 17)   DRY( 20, 18)   DRY( 20, 19)   DRY( 20, 20)   
    DRY( 20, 21)   DRY( 20, 22)   DRY( 20, 23)   DRY( 20, 24)   DRY( 20, 25)   
    DRY( 20, 26)   DRY( 20, 27)   DRY( 20, 28)   DRY( 20, 29)   DRY( 20, 30)   
    DRY( 20, 31)   DRY( 20, 32)   DRY( 20, 33)   DRY( 20, 34)   DRY( 20, 35)   
    DRY( 20, 36)   DRY( 20, 37)   DRY( 20, 38)   DRY( 20, 39)   DRY( 20, 40)   
    DRY( 21,  1)   DRY( 21,  2)   DRY( 21,  3)   DRY( 21,  4)   DRY( 21,  5)   
    DRY( 21,  6)   DRY( 21,  7)   DRY( 21,  8)   DRY( 21,  9)   DRY( 21, 10)   
    DRY( 21, 11)   DRY( 21, 12)   DRY( 21, 13)   DRY( 21, 14)   DRY( 21, 15)   
    DRY( 21, 16)   DRY( 21, 17)   DRY( 21, 18)   DRY( 21, 19)   DRY( 21, 20)   
    DRY( 21, 21)   DRY( 21, 22)   DRY( 21, 23)   DRY( 21, 24)   DRY( 21, 25)   
    DRY( 21, 26)   DRY( 21, 27)   DRY( 21, 28)   DRY( 21, 29)   DRY( 21, 30)   
    DRY( 21, 31)   DRY( 21, 32)   DRY( 21, 33)   DRY( 21, 34)   DRY( 21, 35)   
    DRY( 21, 36)   DRY( 21, 37)   DRY( 21, 38)   DRY( 21, 39)   DRY( 21, 40)   
    DRY( 22,  1)   DRY( 22,  2)   DRY( 22,  3)   DRY( 22,  4)   DRY( 22,  5)   
    DRY( 22,  6)   DRY( 22,  7)   DRY( 22,  8)   DRY( 22,  9)   DRY( 22, 10)   
    DRY( 22, 11)   DRY( 22, 12)   DRY( 22, 13)   DRY( 22, 14)   DRY( 22, 15)   
    DRY( 22, 16)   DRY( 22, 17)   DRY( 22, 18)   DRY( 22, 19)   DRY( 22, 20)   
    DRY( 22, 21)   DRY( 22, 22)   DRY( 22, 23)   DRY( 22, 24)   DRY( 22, 25)   
    DRY( 22, 26)   DRY( 22, 27)   DRY( 22, 28)   DRY( 22, 29)   DRY( 22, 30)   
    DRY( 22, 31)   DRY( 22, 32)   DRY( 22, 33)   DRY( 22, 34)   DRY( 22, 35)   
    DRY( 22, 36)   DRY( 22, 37)   DRY( 22, 38)   DRY( 22, 39)   DRY( 22, 40)   
    DRY( 23,  1)   DRY( 23,  2)   DRY( 23,  3)   DRY( 23,  4)   DRY( 23,  5)   
    DRY( 23,  6)   DRY( 23,  7)   DRY( 23,  8)   DRY( 23,  9)   DRY( 23, 10)   
    DRY( 23, 11)   DRY( 23, 12)   DRY( 23, 13)   DRY( 23, 14)   DRY( 23, 15)   
    DRY( 23, 16)   DRY( 23, 17)   DRY( 23, 18)   DRY( 23, 19)   DRY( 23, 20)   
    DRY( 23, 21)   DRY( 23, 22)   DRY( 23, 23)   DRY( 23, 24)   DRY( 23, 25)   
    DRY( 23, 26)   DRY( 23, 27)   DRY( 23, 28)   DRY( 23, 29)   DRY( 23, 30)   
    DRY( 23, 31)   DRY( 23, 32)   DRY( 23, 33)   DRY( 23, 34)   DRY( 23, 35)   
    DRY( 23, 36)   DRY( 23, 37)   DRY( 23, 38)   DRY( 23, 39)   DRY( 23, 40)   
    DRY( 24,  1)   DRY( 24,  2)   DRY( 24,  3)   DRY( 24,  4)   DRY( 24,  5)   
    DRY( 24,  6)   DRY( 24,  7)   DRY( 24,  8)   DRY( 24,  9)   DRY( 24, 10)   
    DRY( 24, 11)   DRY( 24, 12)   DRY( 24, 13)   DRY( 24, 14)   DRY( 24, 15)   
    DRY( 24, 16)   DRY( 24, 17)   DRY( 24, 18)   DRY( 24, 19)   DRY( 24, 20)   
    DRY( 24, 21)   DRY( 24, 22)   DRY( 24, 23)   DRY( 24, 24)   DRY( 24, 25)   
    DRY( 24, 26)   DRY( 24, 27)   DRY( 24, 28)   DRY( 24, 29)   DRY( 24, 30)   
    DRY( 24, 31)   DRY( 24, 32)   DRY( 24, 33)   DRY( 24, 34)   DRY( 24, 35)   
    DRY( 24, 36)   DRY( 24, 37)   DRY( 24, 38)   DRY( 24, 39)   DRY( 24, 40)   
    DRY( 25,  1)   DRY( 25,  2)   DRY( 25,  3)   DRY( 25,  4)   DRY( 25,  5)   
    DRY( 25,  6)   DRY( 25,  7)   DRY( 25,  8)   DRY( 25,  9)   DRY( 25, 10)   
    DRY( 25, 11)   DRY( 25, 12)   DRY( 25, 13)   DRY( 25, 14)   DRY( 25, 15)   
    DRY( 25, 16)   DRY( 25, 17)   DRY( 25, 18)   DRY( 25, 19)   DRY( 25, 20)   
    DRY( 25, 21)   DRY( 25, 22)   DRY( 25, 23)   DRY( 25, 24)   DRY( 25, 25)   
    DRY( 25, 26)   DRY( 25, 27)   DRY( 25, 28)   DRY( 25, 29)   DRY( 25, 30)   
    DRY( 25, 31)   DRY( 25, 32)   DRY( 25, 33)   DRY( 25, 34)   DRY( 25, 35)   
    DRY( 25, 36)   DRY( 25, 37)   DRY( 25, 38)   DRY( 25, 39)   DRY( 25, 40)   
    DRY( 26,  1)   DRY( 26,  2)   DRY( 26,  3)   DRY( 26,  4)   DRY( 26,  5)   
    DRY( 26,  6)   DRY( 26,  7)   DRY( 26,  8)   DRY( 26,  9)   DRY( 26, 10)   
    DRY( 26, 11)   DRY( 26, 12)   DRY( 26, 13)   DRY( 26, 14)   DRY( 26, 15)   
    DRY( 26, 16)   DRY( 26, 17)   DRY( 26, 18)   DRY( 26, 19)   DRY( 26, 20)   
    DRY( 26, 21)   DRY( 26, 22)   DRY( 26, 23)   DRY( 26, 24)   DRY( 26, 25)   
    DRY( 26, 26)   DRY( 26, 27)   DRY( 26, 28)   DRY( 26, 29)   DRY( 26, 30)   
    DRY( 26, 31)   DRY( 26, 32)   DRY( 26, 33)   DRY( 26, 34)   DRY( 26, 35)   
    DRY( 26, 36)   DRY( 26, 37)   DRY( 26, 38)   DRY( 26, 39)   DRY( 26, 40)   
    DRY( 27,  1)   DRY( 27,  2)   DRY( 27,  3)   DRY( 27,  4)   DRY( 27,  5)   
    DRY( 27,  6)   DRY( 27,  7)   DRY( 27,  8)   DRY( 27,  9)   DRY( 27, 10)   
    DRY( 27, 11)   DRY( 27, 12)   DRY( 27, 13)   DRY( 27, 14)   DRY( 27, 15)   
    DRY( 27, 16)   DRY( 27, 17)   DRY( 27, 18)   DRY( 27, 19)   DRY( 27, 20)   
    DRY( 27, 21)   DRY( 27, 22)   DRY( 27, 23)   DRY( 27, 24)   DRY( 27, 25)   
    DRY( 27, 26)   DRY( 27, 27)   DRY( 27, 28)   DRY( 27, 29)   DRY( 27, 30)   
    DRY( 27, 31)   DRY( 27, 32)   DRY( 27, 33)   DRY( 27, 34)   DRY( 27, 35)   
    DRY( 27, 36)   DRY( 27, 37)   DRY( 27, 38)   DRY( 27, 39)   DRY( 27, 40)   
    DRY( 28,  1)   DRY( 28,  2)   DRY( 28,  3)   DRY( 28,  4)   DRY( 28,  5)   
    DRY( 28,  6)   DRY( 28,  7)   DRY( 28,  8)   DRY( 28,  9)   DRY( 28, 10)   
    DRY( 28, 11)   DRY( 28, 12)   DRY( 28, 13)   DRY( 28, 14)   DRY( 28, 15)   
    DRY( 28, 16)   DRY( 28, 17)   DRY( 28, 18)   DRY( 28, 19)   DRY( 28, 20)   
    DRY( 28, 21)   DRY( 28, 22)   DRY( 28, 23)   DRY( 28, 24)   DRY( 28, 25)   
    DRY( 28, 26)   DRY( 28, 27)   DRY( 28, 28)   DRY( 28, 29)   DRY( 28, 30)   
    DRY( 28, 31)   DRY( 28, 32)   DRY( 28, 33)   DRY( 28, 34)   DRY( 28, 35)   
    DRY( 28, 36)   DRY( 28, 37)   DRY( 28, 38)   DRY( 28, 39)   DRY( 28, 40)   
    DRY( 29,  1)   DRY( 29,  2)   DRY( 29,  3)   DRY( 29,  4)   DRY( 29,  5)   
    DRY( 29,  6)   DRY( 29,  7)   DRY( 29,  8)   DRY( 29,  9)   DRY( 29, 10)   
    DRY( 29, 11)   DRY( 29, 12)   DRY( 29, 13)   DRY( 29, 14)   DRY( 29, 15)   
    DRY( 29, 16)   DRY( 29, 17)   DRY( 29, 18)   DRY( 29, 19)   DRY( 29, 20)   
    DRY( 29, 21)   DRY( 29, 22)   DRY( 29, 23)   DRY( 29, 24)   DRY( 29, 25)   
    DRY( 29, 26)   DRY( 29, 27)   DRY( 29, 28)   DRY( 29, 29)   DRY( 29, 30)   
    DRY( 29, 31)   DRY( 29, 32)   DRY( 29, 33)   DRY( 29, 34)   DRY( 29, 35)   
    DRY( 29, 36)   DRY( 29, 37)   DRY( 29, 38)   DRY( 29, 39)   DRY( 29, 40)   
    DRY( 30,  1)   DRY( 30,  2)   DRY( 30,  3)   DRY( 30,  4)   DRY( 30,  5)   
    DRY( 30,  6)   DRY( 30,  7)   DRY( 30,  8)   DRY( 30,  9)   DRY( 30, 10)   
    DRY( 30, 11)   DRY( 30, 12)   DRY( 30, 13)   DRY( 30, 14)   DRY( 30, 15)   
    DRY( 30, 16)   DRY( 30, 17)   DRY( 30, 18)   DRY( 30, 19)   DRY( 30, 20)   
    DRY( 30, 21)   DRY( 30, 22)   DRY( 30, 23)   DRY( 30, 24)   DRY( 30, 25)   
    DRY( 30, 26)   DRY( 30, 27)   DRY( 30, 28)   DRY( 30, 29)   DRY( 30, 30)   
    DRY( 30, 31)   DRY( 30, 32)   DRY( 30, 33)   DRY( 30, 34)   DRY( 30, 35)   
    DRY( 30, 36)   DRY( 30, 37)   DRY( 30, 38)   DRY( 30, 39)   DRY( 30, 40)   
    DRY( 31,  1)   DRY( 31,  2)   DRY( 31,  3)   DRY( 31,  4)   DRY( 31,  5)   
    DRY( 31,  6)   DRY( 31,  7)   DRY( 31,  8)   DRY( 31,  9)   DRY( 31, 10)   
    DRY( 31, 11)   DRY( 31, 12)   DRY( 31, 13)   DRY( 31, 14)   DRY( 31, 15)   
    DRY( 31, 16)   DRY( 31, 17)   DRY( 31, 18)   DRY( 31, 19)   DRY( 31, 20)   
    DRY( 31, 21)   DRY( 31, 22)   DRY( 31, 23)   DRY( 31, 24)   DRY( 31, 25)   
    DRY( 31, 26)   DRY( 31, 27)   DRY( 31, 28)   DRY( 31, 29)   DRY( 31, 30)   
    DRY( 31, 31)   DRY( 31, 32)   DRY( 31, 33)   DRY( 31, 34)   DRY( 31, 35)   
    DRY( 31, 36)   DRY( 31, 37)   DRY( 31, 38)   DRY( 31, 39)   DRY( 31, 40)   
    DRY( 32,  1)   DRY( 32,  2)   DRY( 32,  3)   DRY( 32,  4)   DRY( 32,  5)   
    DRY( 32,  6)   DRY( 32,  7)   DRY( 32,  8)   DRY( 32,  9)   DRY( 32, 10)   
    DRY( 32, 11)   DRY( 32, 12)   DRY( 32, 13)   DRY( 32, 14)   DRY( 32, 15)   
    DRY( 32, 16)   DRY( 32, 17)   DRY( 32, 18)   DRY( 32, 19)   DRY( 32, 20)   
    DRY( 32, 21)   DRY( 32, 22)   DRY( 32, 23)   DRY( 32, 24)   DRY( 32, 25)   
    DRY( 32, 26)   DRY( 32, 27)   DRY( 32, 28)   DRY( 32, 29)   DRY( 32, 30)   
    DRY( 32, 31)   DRY( 32, 32)   DRY( 32, 33)   DRY( 32, 34)   DRY( 32, 35)   
    DRY( 32, 36)   DRY( 32, 37)   DRY( 32, 38)   DRY( 32, 39)   DRY( 32, 40)   
    DRY( 33,  1)   DRY( 33,  2)   DRY( 33,  3)   DRY( 33,  4)   DRY( 33,  5)   
    DRY( 33,  6)   DRY( 33,  7)   DRY( 33,  8)   DRY( 33,  9)   DRY( 33, 10)   
    DRY( 33, 11)   DRY( 33, 12)   DRY( 33, 13)   DRY( 33, 14)   DRY( 33, 15)   
    DRY( 33, 16)   DRY( 33, 17)   DRY( 33, 18)   DRY( 33, 19)   DRY( 33, 20)   
    DRY( 33, 21)   DRY( 33, 22)   DRY( 33, 23)   DRY( 33, 24)   DRY( 33, 25)   
    DRY( 33, 26)   DRY( 33, 27)   DRY( 33, 28)   DRY( 33, 29)   DRY( 33, 30)   
    DRY( 33, 31)   DRY( 33, 32)   DRY( 33, 33)   DRY( 33, 34)   DRY( 33, 35)   
    DRY( 33, 36)   DRY( 33, 37)   DRY( 33, 38)   DRY( 33, 39)   DRY( 33, 40)   
    DRY( 34,  1)   DRY( 34,  2)   DRY( 34,  3)   DRY( 34,  4)   DRY( 34,  5)   
    DRY( 34,  6)   DRY( 34,  7)   DRY( 34,  8)   DRY( 34,  9)   DRY( 34, 10)   
    DRY( 34, 11)   DRY( 34, 12)   DRY( 34, 13)   DRY( 34, 14)   DRY( 34, 15)   
    DRY( 34, 16)   DRY( 34, 17)   DRY( 34, 18)   DRY( 34, 19)   DRY( 34, 20)   
    DRY( 34, 21)   DRY( 34, 22)   DRY( 34, 23)   DRY( 34, 24)   DRY( 34, 25)   
    DRY( 34, 26)   DRY( 34, 27)   DRY( 34, 28)   DRY( 34, 29)   DRY( 34, 30)   
    DRY( 34, 31)   DRY( 34, 32)   DRY( 34, 33)   DRY( 34, 34)   DRY( 34, 35)   
    DRY( 34, 36)   DRY( 34, 37)   DRY( 34, 38)   DRY( 34, 39)   DRY( 34, 40)   
    DRY( 35,  1)   DRY( 35,  2)   DRY( 35,  3)   DRY( 35,  4)   DRY( 35,  5)   
    DRY( 35,  6)   DRY( 35,  7)   DRY( 35,  8)   DRY( 35,  9)   DRY( 35, 10)   
    DRY( 35, 11)   DRY( 35, 12)   DRY( 35, 13)   DRY( 35, 14)   DRY( 35, 15)   
    DRY( 35, 16)   DRY( 35, 17)   DRY( 35, 18)   DRY( 35, 19)   DRY( 35, 20)   
    DRY( 35, 21)   DRY( 35, 22)   DRY( 35, 23)   DRY( 35, 24)   DRY( 35, 25)   
    DRY( 35, 26)   DRY( 35, 27)   DRY( 35, 28)   DRY( 35, 29)   DRY( 35, 30)   
    DRY( 35, 31)   DRY( 35, 32)   DRY( 35, 33)   DRY( 35, 34)   DRY( 35, 35)   
    DRY( 35, 36)   DRY( 35, 37)   DRY( 35, 38)   DRY( 35, 39)   DRY( 35, 40)   
    DRY( 36,  1)   DRY( 36,  2)   DRY( 36,  3)   DRY( 36,  4)   DRY( 36,  5)   
    DRY( 36,  6)   DRY( 36,  7)   DRY( 36,  8)   DRY( 36,  9)   DRY( 36, 10)   
    DRY( 36, 11)   DRY( 36, 12)   DRY( 36, 13)   DRY( 36, 14)   DRY( 36, 15)   
    DRY( 36, 16)   DRY( 36, 17)   DRY( 36, 18)   DRY( 36, 19)   DRY( 36, 20)   
    DRY( 36, 21)   DRY( 36, 22)   DRY( 36, 23)   DRY( 36, 24)   DRY( 36, 25)   
    DRY( 36, 26)   DRY( 36, 27)   DRY( 36, 28)   DRY( 36, 29)   DRY( 36, 30)   
    DRY( 36, 31)   DRY( 36, 32)   DRY( 36, 33)   DRY( 36, 34)   DRY( 36, 35)   
    DRY( 36, 36)   DRY( 36, 37)   DRY( 36, 38)   DRY( 36, 39)   DRY( 36, 40)   
    DRY( 37,  1)   DRY( 37,  2)   DRY( 37,  3)   DRY( 37,  4)   DRY( 37,  5)   
    DRY( 37,  6)   DRY( 37,  7)   DRY( 37,  8)   DRY( 37,  9)   DRY( 37, 10)   
    DRY( 37, 11)   DRY( 37, 12)   DRY( 37, 13)   DRY( 37, 14)   DRY( 37, 15)   
    DRY( 37, 16)   DRY( 37, 17)   DRY( 37, 18)   DRY( 37, 19)   DRY( 37, 20)   
    DRY( 37, 21)   DRY( 37, 22)   DRY( 37, 23)   DRY( 37, 24)   DRY( 37, 25)   
    DRY( 37, 26)   DRY( 37, 27)   DRY( 37, 28)   DRY( 37, 29)   DRY( 37, 30)   
    DRY( 37, 31)   DRY( 37, 32)   DRY( 37, 33)   DRY( 37, 34)   DRY( 37, 35)   
    DRY( 37, 36)   DRY( 37, 37)   DRY( 37, 38)   DRY( 37, 39)   DRY( 37, 40)   
    DRY( 38,  1)   DRY( 38,  2)   DRY( 38,  3)   DRY( 38,  4)   DRY( 38,  5)   
    DRY( 38,  6)   DRY( 38,  7)   DRY( 38,  8)   DRY( 38,  9)   DRY( 38, 10)   
    DRY( 38, 11)   DRY( 38, 12)   DRY( 38, 13)   DRY( 38, 14)   DRY( 38, 15)   
    DRY( 38, 16)   DRY( 38, 17)   DRY( 38, 18)   DRY( 38, 19)   DRY( 38, 20)   
    DRY( 38, 21)   DRY( 38, 22)   DRY( 38, 23)   DRY( 38, 24)   DRY( 38, 25)   
    DRY( 38, 26)   DRY( 38, 27)   DRY( 38, 28)   DRY( 38, 29)   DRY( 38, 30)   
    DRY( 38, 31)   DRY( 38, 32)   DRY( 38, 33)   DRY( 38, 34)   DRY( 38, 35)   
    DRY( 38, 36)   DRY( 38, 37)   DRY( 38, 38)   DRY( 38, 39)   DRY( 38, 40)   
    DRY( 39,  1)   DRY( 39,  2)   DRY( 39,  3)   DRY( 39,  4)   DRY( 39,  5)   
    DRY( 39,  6)   DRY( 39,  7)   DRY( 39,  8)   DRY( 39,  9)   DRY( 39, 10)   
    DRY( 39, 11)   DRY( 39, 12)   DRY( 39, 13)   DRY( 39, 14)   DRY( 39, 15)   
    DRY( 39, 16)   DRY( 39, 17)   DRY( 39, 18)   DRY( 39, 19)   DRY( 39, 20)   
    DRY( 39, 21)   DRY( 39, 22)   DRY( 39, 23)   DRY( 39, 24)   DRY( 39, 25)   
    DRY( 39, 26)   DRY( 39, 27)   DRY( 39, 28)   DRY( 39, 29)   DRY( 39, 30)   
    DRY( 39, 31)   DRY( 39, 32)   DRY( 39, 33)   DRY( 39, 34)   DRY( 39, 35)   
    DRY( 39, 36)   DRY( 39, 37)   DRY( 39, 38)   DRY( 39, 39)   DRY( 39, 40)   
    DRY( 40,  1)   DRY( 40,  2)   DRY( 40,  3)   DRY( 40,  4)   DRY( 40,  5)   
    DRY( 40,  6)   DRY( 40,  7)   DRY( 40,  8)   DRY( 40,  9)   DRY( 40, 10)   
    DRY( 40, 11)   DRY( 40, 12)   DRY( 40, 13)   DRY( 40, 14)   DRY( 40, 15)   
    DRY( 40, 16)   DRY( 40, 17)   DRY( 40, 18)   DRY( 40, 19)   DRY( 40, 20)   
    DRY( 40, 21)   DRY( 40, 22)   DRY( 40, 23)   DRY( 40, 24)   DRY( 40, 25)   
    DRY( 40, 26)   DRY( 40, 27)   DRY( 40, 28)   DRY( 40, 29)   DRY( 40, 30)   
    DRY( 40, 31)   DRY( 40, 32)   DRY( 40, 33)   DRY( 40, 34)   DRY( 40, 35)   
    DRY( 40, 36)   DRY( 40, 37)   DRY( 40, 38)   DRY( 40, 39)   DRY( 40, 40)   

 CELL CONVERSIONS FOR ITER.=  1  LAYER=  7  STEP=  1  PERIOD=   1   (ROW,COL)
    DRY(  1,  1)   DRY(  1,  2)   DRY(  1,  3)   DRY(  1,  4)   DRY(  1,  5)   
    DRY(  1,  6)   DRY(  1,  7)   DRY(  1,  8)   DRY(  1,  9)   DRY(  1, 10)   
    DRY(  1, 11)   DRY(  1, 12)   DRY(  1, 13)   DRY(  1, 14)   DRY(  1, 15)   
    DRY(  1, 16)   DRY(  1, 17)   DRY(  1, 18)   DRY(  1, 19)   DRY(  1, 20)   
    DRY(  1, 21)   DRY(  1, 22)   DRY(  1, 23)   DRY(  1, 24)   DRY(  1, 25)   
    DRY(  1, 26)   DRY(  1, 27)   DRY(  1, 28)   DRY(  1, 29)   DRY(  1, 30)   
    DRY(  1, 31)   DRY(  1, 32)   DRY(  1, 33)   DRY(  1, 34)   DRY(  1, 35)   
    DRY(  1, 36)   DRY(  1, 37)   DRY(  1, 38)   DRY(  1, 39)   DRY(  1, 40)   
    DRY(  2,  1)   DRY(  2,  2)   DRY(  2,  3)   DRY(  2,  4)   DRY(  2,  5)   
    DRY(  2,  6)   DRY(  2,  7)   DRY(  2,  8)   DRY(  2,  9)   DRY(  2, 10)   
    DRY(  2, 11)   DRY(  2, 12)   DRY(  2, 13)   DRY(  2, 14)   DRY(  2, 15)   
    DRY(  2, 16)   DRY(  2, 17)   DRY(  2, 18)   DRY(  2, 19)   DRY(  2, 20)   
    DRY(  2, 21)   DRY(  2, 22)   DRY(  2, 23)   DRY(  2, 24)   DRY(  2, 25)   
    DRY(  2, 26)   DRY(  2, 27)   DRY(  2, 28)   DRY(  2, 29)   DRY(  2, 30)   
    DRY(  2, 31)   DRY(  2, 32)   DRY(  2, 33)   DRY(  2, 34)   DRY(  2, 35)   
    DRY(  2, 36)   DRY(  2, 37)   DRY(  2, 38)   DRY(  2, 39)   DRY(  2, 40)   
    DRY(  3,  1)   DRY(  3,  2)   DRY(  3,  3)   DRY(  3,  4)   DRY(  3,  5)   
    DRY(  3,  6)   DRY(  3,  7)   DRY(  3,  8)   DRY(  3,  9)   DRY(  3, 10)   
    DRY(  3, 11)   DRY(  3, 12)   DRY(  3, 13)   DRY(  3, 14)   DRY(  3, 15)   
    DRY(  3, 16)   DRY(  3, 17)   DRY(  3, 18)   DRY(  3, 19)   DRY(  3, 20)   
    DRY(  3, 21)   DRY(  3, 22)   DRY(  3, 23)   DRY(  3, 24)   DRY(  3, 25)   
    DRY(  3, 26)   DRY(  3, 27)   DRY(  3, 28)   DRY(  3, 29)   DRY(  3, 30)   
    DRY(  3, 31)   DRY(  3, 32)   DRY(  3, 33)   DRY(  3, 34)   DRY(  3, 35)   
    DRY(  3, 36)   DRY(  3, 37)   DRY(  3, 38)   DRY(  3, 39)   DRY(  3, 40)   
    DRY(  4,  1)   DRY(  4,  2)   DRY(  4,  3)   DRY(  4,  4)   DRY(  4,  5)   
    DRY(  4,  6)   DRY(  4,  7)   DRY(  4,  8)   DRY(  4,  9)   DRY(  4, 10)   
    DRY(  4, 11)   DRY(  4, 12)   DRY(  4, 13)   DRY(  4, 14)   DRY(  4, 15)   
    DRY(  4, 16)   DRY(  4, 17)   DRY(  4, 18)   DRY(  4, 19)   DRY(  4, 20)   
    DRY(  4, 21)   DRY(  4, 22)   DRY(  4, 23)   DRY(  4, 24)   DRY(  4, 25)   
    DRY(  4, 26)   DRY(  4, 27)   DRY(  4, 28)   DRY(  4, 29)   DRY(  4, 30)   
    DRY(  4, 31)   DRY(  4, 32)   DRY(  4, 33)   DRY(  4, 34)   DRY(  4, 35)   
    DRY(  4, 36)   DRY(  4, 37)   DRY(  4, 38)   DRY(  4, 39)   DRY(  4, 40)   
    DRY(  5,  1)   DRY(  5,  2)   DRY(  5,  3)   DRY(  5,  4)   DRY(  5,  5)   
    DRY(  5,  6)   DRY(  5,  7)   DRY(  5,  8)   DRY(  5,  9)   DRY(  5, 10)   
    DRY(  5, 11)   DRY(  5, 12)   DRY(  5, 13)   DRY(  5, 14)   DRY(  5, 15)   
    DRY(  5, 16)   DRY(  5, 17)   DRY(  5, 18)   DRY(  5, 19)   DRY(  5, 20)   
    DRY(  5, 21)   DRY(  5, 22)   DRY(  5, 23)   DRY(  5, 24)   DRY(  5, 25)   
    DRY(  5, 26)   DRY(  5, 27)   DRY(  5, 28)   DRY(  5, 29)   DRY(  5, 30)   
    DRY(  5, 31)   DRY(  5, 32)   DRY(  5, 33)   DRY(  5, 34)   DRY(  5, 35)   
    DRY(  5, 36)   DRY(  5, 37)   DRY(  5, 38)   DRY(  5, 39)   DRY(  5, 40)   
    DRY(  6,  1)   DRY(  6,  2)   DRY(  6,  3)   DRY(  6,  4)   DRY(  6,  5)   
    DRY(  6,  6)   DRY(  6,  7)   DRY(  6,  8)   DRY(  6,  9)   DRY(  6, 10)   
    DRY(  6, 11)   DRY(  6, 12)   DRY(  6, 13)   DRY(  6, 14)   DRY(  6, 15)   
    DRY(  6, 16)   DRY(  6, 17)   DRY(  6, 18)   DRY(  6, 19)   DRY(  6, 20)   
    DRY(  6, 21)   DRY(  6, 22)   DRY(  6, 23)   DRY(  6, 24)   DRY(  6, 25)   
    DRY(  6, 26)   DRY(  6, 27)   DRY(  6, 28)   DRY(  6, 29)   DRY(  6, 30)   
    DRY(  6, 31)   DRY(  6, 32)   DRY(  6, 33)   DRY(  6, 34)   DRY(  6, 35)   
    DRY(  6, 36)   DRY(  6, 37)   DRY(  6, 38)   DRY(  6, 39)   DRY(  6, 40)   
    DRY(  7,  1)   DRY(  7,  2)   DRY(  7,  3)   DRY(  7,  4)   DRY(  7,  5)   
    DRY(  7,  6)   DRY(  7,  7)   DRY(  7,  8)   DRY(  7,  9)   DRY(  7, 10)   
    DRY(  7, 11)   DRY(  7, 12)   DRY(  7, 13)   DRY(  7, 14)   DRY(  7, 15)   
    DRY(  7, 16)   DRY(  7, 17)   DRY(  7, 18)   DRY(  7, 19)   DRY(  7, 20)   
    DRY(  7, 21)   DRY(  7, 22)   DRY(  7, 23)   DRY(  7, 24)   DRY(  7, 25)   
    DRY(  7, 26)   DRY(  7, 27)   DRY(  7, 28)   DRY(  7, 29)   DRY(  7, 30)   
    DRY(  7, 31)   DRY(  7, 32)   DRY(  7, 33)   DRY(  7, 34)   DRY(  7, 35)   
    DRY(  7, 36)   DRY(  7, 37)   DRY(  7, 38)   DRY(  7, 39)   DRY(  7, 40)   
    DRY(  8,  1)   DRY(  8,  2)   DRY(  8,  3)   DRY(  8,  4)   DRY(  8,  5)   
    DRY(  8,  6)   DRY(  8,  7)   DRY(  8,  8)   DRY(  8,  9)   DRY(  8, 10)   
    DRY(  8, 11)   DRY(  8, 12)   DRY(  8, 13)   DRY(  8, 14)   DRY(  8, 15)   
    DRY(  8, 16)   DRY(  8, 17)   DRY(  8, 18)   DRY(  8, 19)   DRY(  8, 20)   
    DRY(  8, 21)   DRY(  8, 22)   DRY(  8, 23)   DRY(  8, 24)   DRY(  8, 25)   
    DRY(  8, 26)   DRY(  8, 27)   DRY(  8, 28)   DRY(  8, 29)   DRY(  8, 30)   
    DRY(  8, 31)   DRY(  8, 32)   DRY(  8, 33)   DRY(  8, 34)   DRY(  8, 35)   
    DRY(  8, 36)   DRY(  8, 37)   DRY(  8, 38)   DRY(  8, 39)   DRY(  8, 40)   
    DRY(  9,  1)   DRY(  9,  2)   DRY(  9,  3)   DRY(  9,  4)   DRY(  9,  5)   
    DRY(  9,  6)   DRY(  9,  7)   DRY(  9,  8)   DRY(  9,  9)   DRY(  9, 10)   
    DRY(  9, 11)   DRY(  9, 12)   DRY(  9, 13)   DRY(  9, 14)   DRY(  9, 15)   
    DRY(  9, 16)   DRY(  9, 17)   DRY(  9, 18)   DRY(  9, 19)   DRY(  9, 20)   
    DRY(  9, 21)   DRY(  9, 22)   DRY(  9, 23)   DRY(  9, 24)   DRY(  9, 25)   
    DRY(  9, 26)   DRY(  9, 27)   DRY(  9, 28)   DRY(  9, 29)   DRY(  9, 30)   
    DRY(  9, 31)   DRY(  9, 32)   DRY(  9, 33)   DRY(  9, 34)   DRY(  9, 35)   
    DRY(  9, 36)   DRY(  9, 37)   DRY(  9, 38)   DRY(  9, 39)   DRY(  9, 40)   
    DRY( 10,  1)   DRY( 10,  2)   DRY( 10,  3)   DRY( 10,  4)   DRY( 10,  5)   
    DRY( 10,  6)   DRY( 10,  7)   DRY( 10,  8)   DRY( 10,  9)   DRY( 10, 10)   
    DRY( 10, 11)   DRY( 10, 12)   DRY( 10, 13)   DRY( 10, 14)   DRY( 10, 15)   
    DRY( 10, 16)   DRY( 10, 17)   DRY( 10, 18)   DRY( 10, 19)   DRY( 10, 20)   
    DRY( 10, 21)   DRY( 10, 22)   DRY( 10, 23)   DRY( 10, 24)   DRY( 10, 25)   
    DRY( 10, 26)   DRY( 10, 27)   DRY( 10, 28)   DRY( 10, 29)   DRY( 10, 30)   
    DRY( 10, 31)   DRY( 10, 32)   DRY( 10, 33)   DRY( 10, 34)   DRY( 10, 35)   
    DRY( 10, 36)   DRY( 10, 37)   DRY( 10, 38)   DRY( 10, 39)   DRY( 10, 40)   
    DRY( 11,  1)   DRY( 11,  2)   DRY( 11,  3)   DRY( 11,  4)   DRY( 11,  5)   
    DRY( 11,  6)   DRY( 11,  7)   DRY( 11,  8)   DRY( 11,  9)   DRY( 11, 10)   
    DRY( 11, 11)   DRY( 11, 12)   DRY( 11, 13)   DRY( 11, 14)   DRY( 11, 15)   
    DRY( 11, 16)   DRY( 11, 17)   DRY( 11, 18)   DRY( 11, 19)   DRY( 11, 20)   
    DRY( 11, 21)   DRY( 11, 22)   DRY( 11, 23)   DRY( 11, 24)   DRY( 11, 25)   
    DRY( 11, 26)   DRY( 11, 27)   DRY( 11, 28)   DRY( 11, 29)   DRY( 11, 30)   
    DRY( 11, 31)   DRY( 11, 32)   DRY( 11, 33)   DRY( 11, 34)   DRY( 11, 35)   
    DRY( 11, 36)   DRY( 11, 37)   DRY( 11, 38)   DRY( 11, 39)   DRY( 11, 40)   
    DRY( 12,  1)   DRY( 12,  2)   DRY( 12,  3)   DRY( 12,  4)   DRY( 12,  5)   
    DRY( 12,  6)   DRY( 12,  7)   DRY( 12,  8)   DRY( 12,  9)   DRY( 12, 10)   
    DRY( 12, 11)   DRY( 12, 12)   DRY( 12, 13)   DRY( 12, 14)   DRY( 12, 15)   
    DRY( 12, 16)   DRY( 12, 17)   DRY( 12, 18)   DRY( 12, 19)   DRY( 12, 20)   
    DRY( 12, 21)   DRY( 12, 22)   DRY( 12, 23)   DRY( 12, 24)   DRY( 12, 25)   
    DRY( 12, 26)   DRY( 12, 27)   DRY( 12, 28)   DRY( 12, 29)   DRY( 12, 30)   
    DRY( 12, 31)   DRY( 12, 32)   DRY( 12, 33)   DRY( 12, 34)   DRY( 12, 35)   
    DRY( 12, 36)   DRY( 12, 37)   DRY( 12, 38)   DRY( 12, 39)   DRY( 12, 40)   
    DRY( 13,  1)   DRY( 13,  2)   DRY( 13,  3)   DRY( 13,  4)   DRY( 13,  5)   
    DRY( 13,  6)   DRY( 13,  7)   DRY( 13,  8)   DRY( 13,  9)   DRY( 13, 10)   
    DRY( 13, 11)   DRY( 13, 12)   DRY( 13, 13)   DRY( 13, 14)   DRY( 13, 15)   
    DRY( 13, 16)   DRY( 13, 17)   DRY( 13, 18)   DRY( 13, 19)   DRY( 13, 20)   
    DRY( 13, 21)   DRY( 13, 22)   DRY( 13, 23)   DRY( 13, 24)   DRY( 13, 25)   
    DRY( 13, 26)   DRY( 13, 27)   DRY( 13, 28)   DRY( 13, 29)   DRY( 13, 30)   
    DRY( 13, 31)   DRY( 13, 32)   DRY( 13, 33)   DRY( 13, 34)   DRY( 13, 35)   
    DRY( 13, 36)   DRY( 13, 37)   DRY( 13, 38)   DRY( 13, 39)   DRY( 13, 40)   
    DRY( 14,  1)   DRY( 14,  2)   DRY( 14,  3)   DRY( 14,  4)   DRY( 14,  5)   
    DRY( 14,  6)   DRY( 14,  7)   DRY( 14,  8)   DRY( 14,  9)   DRY( 14, 10)   
    DRY( 14, 11)   DRY( 14, 12)   DRY( 14, 13)   DRY( 14, 14)   DRY( 14, 15)   
    DRY( 14, 16)   DRY( 14, 17)   DRY( 14, 18)   DRY( 14, 19)   DRY( 14, 20)   
    DRY( 14, 21)   DRY( 14, 22)   DRY( 14, 23)   DRY( 14, 24)   DRY( 14, 25)   
    DRY( 14, 26)   DRY( 14, 27)   DRY( 14, 28)   DRY( 14, 29)   DRY( 14, 30)   
    DRY( 14, 31)   DRY( 14, 32)   DRY( 14, 33)   DRY( 14, 34)   DRY( 14, 35)   
    DRY( 14, 36)   DRY( 14, 37)   DRY( 14, 38)   DRY( 14, 39)   DRY( 14, 40)   
    DRY( 15,  1)   DRY( 15,  2)   DRY( 15,  3)   DRY( 15,  4)   DRY( 15,  5)   
    DRY( 15,  6)   DRY( 15,  7)   DRY( 15,  8)   DRY( 15,  9)   DRY( 15, 10)   
    DRY( 15, 11)   DRY( 15, 12)   DRY( 15, 13)   DRY( 15, 14)   DRY( 15, 15)   
    DRY( 15, 16)   DRY( 15, 17)   DRY( 15, 18)   DRY( 15, 19)   DRY( 15, 20)   
    DRY( 15, 21)   DRY( 15, 22)   DRY( 15, 23)   DRY( 15, 24)   DRY( 15, 25)   
    DRY( 15, 26)   DRY( 15, 27)   DRY( 15, 28)   DRY( 15, 29)   DRY( 15, 30)   
    DRY( 15, 31)   DRY( 15, 32)   DRY( 15, 33)   DRY( 15, 34)   DRY( 15, 35)   
    DRY( 15, 36)   DRY( 15, 37)   DRY( 15, 38)   DRY( 15, 39)   DRY( 15, 40)   
    DRY( 16,  1)   DRY( 16,  2)   DRY( 16,  3)   DRY( 16,  4)   DRY( 16,  5)   
    DRY( 16,  6)   DRY( 16,  7)   DRY( 16,  8)   DRY( 16,  9)   DRY( 16, 10)   
    DRY( 16, 11)   DRY( 16, 12)   DRY( 16, 13)   DRY( 16, 14)   DRY( 16, 15)   
    DRY( 16, 16)   DRY( 16, 17)   DRY( 16, 18)   DRY( 16, 19)   DRY( 16, 20)   
    DRY( 16, 21)   DRY( 16, 22)   DRY( 16, 23)   DRY( 16, 24)   DRY( 16, 25)   
    DRY( 16, 26)   DRY( 16, 27)   DRY( 16, 28)   DRY( 16, 29)   DRY( 16, 30)   
    DRY( 16, 31)   DRY( 16, 32)   DRY( 16, 33)   DRY( 16, 34)   DRY( 16, 35)   
    DRY( 16, 36)   DRY( 16, 37)   DRY( 16, 38)   DRY( 16, 39)   DRY( 16, 40)   
    DRY( 17,  1)   DRY( 17,  2)   DRY( 17,  3)   DRY( 17,  4)   DRY( 17,  5)   
    DRY( 17,  6)   DRY( 17,  7)   DRY( 17,  8)   DRY( 17,  9)   DRY( 17, 10)   
    DRY( 17, 11)   DRY( 17, 12)   DRY( 17, 13)   DRY( 17, 14)   DRY( 17, 15)   
    DRY( 17, 16)   DRY( 17, 17)   DRY( 17, 18)   DRY( 17, 19)   DRY( 17, 20)   
    DRY( 17, 21)   DRY( 17, 22)   DRY( 17, 23)   DRY( 17, 24)   DRY( 17, 25)   
    DRY( 17, 26)   DRY( 17, 27)   DRY( 17, 28)   DRY( 17, 29)   DRY( 17, 30)   
    DRY( 17, 31)   DRY( 17, 32)   DRY( 17, 33)   DRY( 17, 34)   DRY( 17, 35)   
    DRY( 17, 36)   DRY( 17, 37)   DRY( 17, 38)   DRY( 17, 39)   DRY( 17, 40)   
    DRY( 18,  1)   DRY( 18,  2)   DRY( 18,  3)   DRY( 18,  4)   DRY( 18,  5)   
    DRY( 18,  6)   DRY( 18,  7)   DRY( 18,  8)   DRY( 18,  9)   DRY( 18, 10)   
    DRY( 18, 11)   DRY( 18, 12)   DRY( 18, 13)   DRY( 18, 14)   DRY( 18, 15)   
    DRY( 18, 16)   DRY( 18, 17)   DRY( 18, 18)   DRY( 18, 19)   DRY( 18, 20)   
    DRY( 18, 21)   DRY( 18, 22)   DRY( 18, 23)   DRY( 18, 24)   DRY( 18, 25)   
    DRY( 18, 26)   DRY( 18, 27)   DRY( 18, 28)   DRY( 18, 29)   DRY( 18, 30)   
    DRY( 18, 31)   DRY( 18, 32)   DRY( 18, 33)   DRY( 18, 34)   DRY( 18, 35)   
    DRY( 18, 36)   DRY( 18, 37)   DRY( 18, 38)   DRY( 18, 39)   DRY( 18, 40)   
    DRY( 19,  1)   DRY( 19,  2)   DRY( 19,  3)   DRY( 19,  4)   DRY( 19,  5)   
    DRY( 19,  6)   DRY( 19,  7)   DRY( 19,  8)   DRY( 19,  9)   DRY( 19, 10)   
    DRY( 19, 11)   DRY( 19, 12)   DRY( 19, 13)   DRY( 19, 14)   DRY( 19, 15)   
    DRY( 19, 16)   DRY( 19, 17)   DRY( 19, 18)   DRY( 19, 19)   DRY( 19, 20)   
    DRY( 19, 21)   DRY( 19, 22)   DRY( 19, 23)   DRY( 19, 24)   DRY( 19, 25)   
    DRY( 19, 26)   DRY( 19, 27)   DRY( 19, 28)   DRY( 19, 29)   DRY( 19, 30)   
    DRY( 19, 31)   DRY( 19, 32)   DRY( 19, 33)   DRY( 19, 34)   DRY( 19, 35)   
    DRY( 19, 36)   DRY( 19, 37)   DRY( 19, 38)   DRY( 19, 39)   DRY( 19, 40)   
    DRY( 20,  1)   DRY( 20,  2)   DRY( 20,  3)   DRY( 20,  4)   DRY( 20,  5)   
    DRY( 20,  6)   DRY( 20,  7)   DRY( 20,  8)   DRY( 20,  9)   DRY( 20, 10)   
    DRY( 20, 11)   DRY( 20, 12)   DRY( 20, 13)   DRY( 20, 14)   DRY( 20, 15)   
    DRY( 20, 16)   DRY( 20, 17)   DRY( 20, 18)   DRY( 20, 19)   DRY( 20, 20)   
    DRY( 20, 21)   DRY( 20, 22)   DRY( 20, 23)   DRY( 20, 24)   DRY( 20, 25)   
    DRY( 20, 26)   DRY( 20, 27)   DRY( 20, 28)   DRY( 20, 29)   DRY( 20, 30)   
    DRY( 20, 31)   DRY( 20, 32)   DRY( 20, 33)   DRY( 20, 34)   DRY( 20, 35)   
    DRY( 20, 36)   DRY( 20, 37)   DRY( 20, 38)   DRY( 20, 39)   DRY( 20, 40)   
    DRY( 21,  1)   DRY( 21,  2)   DRY( 21,  3)   DRY( 21,  4)   DRY( 21,  5)   
    DRY( 21,  6)   DRY( 21,  7)   DRY( 21,  8)   DRY( 21,  9)   DRY( 21, 10)   
    DRY( 21, 11)   DRY( 21, 12)   DRY( 21, 13)   DRY( 21, 14)   DRY( 21, 15)   
    DRY( 21, 16)   DRY( 21, 17)   DRY( 21, 18)   DRY( 21, 19)   DRY( 21, 20)   
    DRY( 21, 21)   DRY( 21, 22)   DRY( 21, 23)   DRY( 21, 24)   DRY( 21, 25)   
    DRY( 21, 26)   DRY( 21, 27)   DRY( 21, 28)   DRY( 21, 29)   DRY( 21, 30)   
    DRY( 21, 31)   DRY( 21, 32)   DRY( 21, 33)   DRY( 21, 34)   DRY( 21, 35)   
    DRY( 21, 36)   DRY( 21, 37)   DRY( 21, 38)   DRY( 21, 39)   DRY( 21, 40)   
    DRY( 22,  1)   DRY( 22,  2)   DRY( 22,  3)   DRY( 22,  4)   DRY( 22,  5)   
    DRY( 22,  6)   DRY( 22,  7)   DRY( 22,  8)   DRY( 22,  9)   DRY( 22, 10)   
    DRY( 22, 11)   DRY( 22, 12)   DRY( 22, 13)   DRY( 22, 14)   DRY( 22, 15)   
    DRY( 22, 16)   DRY( 22, 17)   DRY( 22, 18)   DRY( 22, 19)   DRY( 22, 20)   
    DRY( 22, 21)   DRY( 22, 22)   DRY( 22, 23)   DRY( 22, 24)   DRY( 22, 25)   
    DRY( 22, 26)   DRY( 22, 27)   DRY( 22, 28)   DRY( 22, 29)   DRY( 22, 30)   
    DRY( 22, 31)   DRY( 22, 32)   DRY( 22, 33)   DRY( 22, 34)   DRY( 22, 35)   
    DRY( 22, 36)   DRY( 22, 37)   DRY( 22, 38)   DRY( 22, 39)   DRY( 22, 40)   
    DRY( 23,  1)   DRY( 23,  2)   DRY( 23,  3)   DRY( 23,  4)   DRY( 23,  5)   
    DRY( 23,  6)   DRY( 23,  7)   DRY( 23,  8)   DRY( 23,  9)   DRY( 23, 10)   
    DRY( 23, 11)   DRY( 23, 12)   DRY( 23, 13)   DRY( 23, 14)   DRY( 23, 15)   
    DRY( 23, 16)   DRY( 23, 17)   DRY( 23, 18)   DRY( 23, 19)   DRY( 23, 20)   
    DRY( 23, 21)   DRY( 23, 22)   DRY( 23, 23)   DRY( 23, 24)   DRY( 23, 25)   
    DRY( 23, 26)   DRY( 23, 27)   DRY( 23, 28)   DRY( 23, 29)   DRY( 23, 30)   
    DRY( 23, 31)   DRY( 23, 32)   DRY( 23, 33)   DRY( 23, 34)   DRY( 23, 35)   
    DRY( 23, 36)   DRY( 23, 37)   DRY( 23, 38)   DRY( 23, 39)   DRY( 23, 40)   
    DRY( 24,  1)   DRY( 24,  2)   DRY( 24,  3)   DRY( 24,  4)   DRY( 24,  5)   
    DRY( 24,  6)   DRY( 24,  7)   DRY( 24,  8)   DRY( 24,  9)   DRY( 24, 10)   
    DRY( 24, 11)   DRY( 24, 12)   DRY( 24, 13)   DRY( 24, 14)   DRY( 24, 15)   
    DRY( 24, 16)   DRY( 24, 17)   DRY( 24, 18)   DRY( 24, 19)   DRY( 24, 20)   
    DRY( 24, 21)   DRY( 24, 22)   DRY( 24, 23)   DRY( 24, 24)   DRY( 24, 25)   
    DRY( 24, 26)   DRY( 24, 27)   DRY( 24, 28)   DRY( 24, 29)   DRY( 24, 30)   
    DRY( 24, 31)   DRY( 24, 32)   DRY( 24, 33)   DRY( 24, 34)   DRY( 24, 35)   
    DRY( 24, 36)   DRY( 24, 37)   DRY( 24, 38)   DRY( 24, 39)   DRY( 24, 40)   
    DRY( 25,  1)   DRY( 25,  2)   DRY( 25,  3)   DRY( 25,  4)   DRY( 25,  5)   
    DRY( 25,  6)   DRY( 25,  7)   DRY( 25,  8)   DRY( 25,  9)   DRY( 25, 10)   
    DRY( 25, 11)   DRY( 25, 12)   DRY( 25, 13)   DRY( 25, 14)   DRY( 25, 15)   
    DRY( 25, 16)   DRY( 25, 17)   DRY( 25, 18)   DRY( 25, 19)   DRY( 25, 20)   
    DRY( 25, 21)   DRY( 25, 22)   DRY( 25, 23)   DRY( 25, 24)   DRY( 25, 25)   
    DRY( 25, 26)   DRY( 25, 27)   DRY( 25, 28)   DRY( 25, 29)   DRY( 25, 30)   
    DRY( 25, 31)   DRY( 25, 32)   DRY( 25, 33)   DRY( 25, 34)   DRY( 25, 35)   
    DRY( 25, 36)   DRY( 25, 37)   DRY( 25, 38)   DRY( 25, 39)   DRY( 25, 40)   
    DRY( 26,  1)   DRY( 26,  2)   DRY( 26,  3)   DRY( 26,  4)   DRY( 26,  5)   
    DRY( 26,  6)   DRY( 26,  7)   DRY( 26,  8)   DRY( 26,  9)   DRY( 26, 10)   
    DRY( 26, 11)   DRY( 26, 12)   DRY( 26, 13)   DRY( 26, 14)   DRY( 26, 15)   
    DRY( 26, 16)   DRY( 26, 17)   DRY( 26, 18)   DRY( 26, 19)   DRY( 26, 20)   
    DRY( 26, 21)   DRY( 26, 22)   DRY( 26, 23)   DRY( 26, 24)   DRY( 26, 25)   
    DRY( 26, 26)   DRY( 26, 27)   DRY( 26, 28)   DRY( 26, 29)   DRY( 26, 30)   
    DRY( 26, 31)   DRY( 26, 32)   DRY( 26, 33)   DRY( 26, 34)   DRY( 26, 35)   
    DRY( 26, 36)   DRY( 26, 37)   DRY( 26, 38)   DRY( 26, 39)   DRY( 26, 40)   
    DRY( 27,  1)   DRY( 27,  2)   DRY( 27,  3)   DRY( 27,  4)   DRY( 27,  5)   
    DRY( 27,  6)   DRY( 27,  7)   DRY( 27,  8)   DRY( 27,  9)   DRY( 27, 10)   
    DRY( 27, 11)   DRY( 27, 12)   DRY( 27, 13)   DRY( 27, 14)   DRY( 27, 15)   
    DRY( 27, 16)   DRY( 27, 17)   DRY( 27, 18)   DRY( 27, 19)   DRY( 27, 20)   
    DRY( 27, 21)   DRY( 27, 22)   DRY( 27, 23)   DRY( 27, 24)   DRY( 27, 25)   
    DRY( 27, 26)   DRY( 27, 27)   DRY( 27, 28)   DRY( 27, 29)   DRY( 27, 30)   
    DRY( 27, 31)   DRY( 27, 32)   DRY( 27, 33)   DRY( 27, 34)   DRY( 27, 35)   
    DRY( 27, 36)   DRY( 27, 37)   DRY( 27, 38)   DRY( 27, 39)   DRY( 27, 40)   
    DRY( 28,  1)   DRY( 28,  2)   DRY( 28,  3)   DRY( 28,  4)   DRY( 28,  5)   
    DRY( 28,  6)   DRY( 28,  7)   DRY( 28,  8)   DRY( 28,  9)   DRY( 28, 10)   
    DRY( 28, 11)   DRY( 28, 12)   DRY( 28, 13)   DRY( 28, 14)   DRY( 28, 15)   
    DRY( 28, 16)   DRY( 28, 17)   DRY( 28, 18)   DRY( 28, 19)   DRY( 28, 20)   
    DRY( 28, 21)   DRY( 28, 22)   DRY( 28, 23)   DRY( 28, 24)   DRY( 28, 25)   
    DRY( 28, 26)   DRY( 28, 27)   DRY( 28, 28)   DRY( 28, 29)   DRY( 28, 30)   
    DRY( 28, 31)   DRY( 28, 32)   DRY( 28, 33)   DRY( 28, 34)   DRY( 28, 35)   
    DRY( 28, 36)   DRY( 28, 37)   DRY( 28, 38)   DRY( 28, 39)   DRY( 28, 40)   
    DRY( 29,  1)   DRY( 29,  2)   DRY( 29,  3)   DRY( 29,  4)   DRY( 29,  5)   
    DRY( 29,  6)   DRY( 29,  7)   DRY( 29,  8)   DRY( 29,  9)   DRY( 29, 10)   
    DRY( 29, 11)   DRY( 29, 12)   DRY( 29, 13)   DRY( 29, 14)   DRY( 29, 15)   
    DRY( 29, 16)   DRY( 29, 17)   DRY( 29, 18)   DRY( 29, 19)   DRY( 29, 20)   
    DRY( 29, 21)   DRY( 29, 22)   DRY( 29, 23)   DRY( 29, 24)   DRY( 29, 25)   
    DRY( 29, 26)   DRY( 29, 27)   DRY( 29, 28)   DRY( 29, 29)   DRY( 29, 30)   
    DRY( 29, 31)   DRY( 29, 32)   DRY( 29, 33)   DRY( 29, 34)   DRY( 29, 35)   
    DRY( 29, 36)   DRY( 29, 37)   DRY( 29, 38)   DRY( 29, 39)   DRY( 29, 40)   
    DRY( 30,  1)   DRY( 30,  2)   DRY( 30,  3)   DRY( 30,  4)   DRY( 30,  5)   
    DRY( 30,  6)   DRY( 30,  7)   DRY( 30,  8)   DRY( 30,  9)   DRY( 30, 10)   
    DRY( 30, 11)   DRY( 30, 12)   DRY( 30, 13)   DRY( 30, 14)   DRY( 30, 15)   
    DRY( 30, 16)   DRY( 30, 17)   DRY( 30, 18)   DRY( 30, 19)   DRY( 30, 20)   
    DRY( 30, 21)   DRY( 30, 22)   DRY( 30, 23)   DRY( 30, 24)   DRY( 30, 25)   
    DRY( 30, 26)   DRY( 30, 27)   DRY( 30, 28)   DRY( 30, 29)   DRY( 30, 30)   
    DRY( 30, 31)   DRY( 30, 32)   DRY( 30, 33)   DRY( 30, 34)   DRY( 30, 35)   
    DRY( 30, 36)   DRY( 30, 37)   DRY( 30, 38)   DRY( 30, 39)   DRY( 30, 40)   
    DRY( 31,  1)   DRY( 31,  2)   DRY( 31,  3)   DRY( 31,  4)   DRY( 31,  5)   
    DRY( 31,  6)   DRY( 31,  7)   DRY( 31,  8)   DRY( 31,  9)   DRY( 31, 10)   
    DRY( 31, 11)   DRY( 31, 12)   DRY( 31, 13)   DRY( 31, 14)   DRY( 31, 15)   
    DRY( 31, 16)   DRY( 31, 17)   DRY( 31, 18)   DRY( 31, 19)   DRY( 31, 20)   
    DRY( 31, 21)   DRY( 31, 22)   DRY( 31, 23)   DRY( 31, 24)   DRY( 31, 25)   
    DRY( 31, 26)   DRY( 31, 27)   DRY( 31, 28)   DRY( 31, 29)   DRY( 31, 30)   
    DRY( 31, 31)   DRY( 31, 32)   DRY( 31, 33)   DRY( 31, 34)   DRY( 31, 35)   
    DRY( 31, 36)   DRY( 31, 37)   DRY( 31, 38)   DRY( 31, 39)   DRY( 31, 40)   
    DRY( 32,  1)   DRY( 32,  2)   DRY( 32,  3)   DRY( 32,  4)   DRY( 32,  5)   
    DRY( 32,  6)   DRY( 32,  7)   DRY( 32,  8)   DRY( 32,  9)   DRY( 32, 10)   
    DRY( 32, 11)   DRY( 32, 12)   DRY( 32, 13)   DRY( 32, 14)   DRY( 32, 15)   
    DRY( 32, 16)   DRY( 32, 17)   DRY( 32, 18)   DRY( 32, 19)   DRY( 32, 20)   
    DRY( 32, 21)   DRY( 32, 22)   DRY( 32, 23)   DRY( 32, 24)   DRY( 32, 25)   
    DRY( 32, 26)   DRY( 32, 27)   DRY( 32, 28)   DRY( 32, 29)   DRY( 32, 30)   
    DRY( 32, 31)   DRY( 32, 32)   DRY( 32, 33)   DRY( 32, 34)   DRY( 32, 35)   
    DRY( 32, 36)   DRY( 32, 37)   DRY( 32, 38)   DRY( 32, 39)   DRY( 32, 40)   
    DRY( 33,  1)   DRY( 33,  2)   DRY( 33,  3)   DRY( 33,  4)   DRY( 33,  5)   
    DRY( 33,  6)   DRY( 33,  7)   DRY( 33,  8)   DRY( 33,  9)   DRY( 33, 10)   
    DRY( 33, 11)   DRY( 33, 12)   DRY( 33, 13)   DRY( 33, 14)   DRY( 33, 15)   
    DRY( 33, 16)   DRY( 33, 17)   DRY( 33, 18)   DRY( 33, 19)   DRY( 33, 20)   
    DRY( 33, 21)   DRY( 33, 22)   DRY( 33, 23)   DRY( 33, 24)   DRY( 33, 25)   
    DRY( 33, 26)   DRY( 33, 27)   DRY( 33, 28)   DRY( 33, 29)   DRY( 33, 30)   
    DRY( 33, 31)   DRY( 33, 32)   DRY( 33, 33)   DRY( 33, 34)   DRY( 33, 35)   
    DRY( 33, 36)   DRY( 33, 37)   DRY( 33, 38)   DRY( 33, 39)   DRY( 33, 40)   
    DRY( 34,  1)   DRY( 34,  2)   DRY( 34,  3)   DRY( 34,  4)   DRY( 34,  5)   
    DRY( 34,  6)   DRY( 34,  7)   DRY( 34,  8)   DRY( 34,  9)   DRY( 34, 10)   
    DRY( 34, 11)   DRY( 34, 12)   DRY( 34, 13)   DRY( 34, 14)   DRY( 34, 15)   
    DRY( 34, 16)   DRY( 34, 17)   DRY( 34, 18)   DRY( 34, 19)   DRY( 34, 20)   
    DRY( 34, 21)   DRY( 34, 22)   DRY( 34, 23)   DRY( 34, 24)   DRY( 34, 25)   
    DRY( 34, 26)   DRY( 34, 27)   DRY( 34, 28)   DRY( 34, 29)   DRY( 34, 30)   
    DRY( 34, 31)   DRY( 34, 32)   DRY( 34, 33)   DRY( 34, 34)   DRY( 34, 35)   
    DRY( 34, 36)   DRY( 34, 37)   DRY( 34, 38)   DRY( 34, 39)   DRY( 34, 40)   
    DRY( 35,  1)   DRY( 35,  2)   DRY( 35,  3)   DRY( 35,  4)   DRY( 35,  5)   
    DRY( 35,  6)   DRY( 35,  7)   DRY( 35,  8)   DRY( 35,  9)   DRY( 35, 10)   
    DRY( 35, 11)   DRY( 35, 12)   DRY( 35, 13)   DRY( 35, 14)   DRY( 35, 15)   
    DRY( 35, 16)   DRY( 35, 17)   DRY( 35, 18)   DRY( 35, 19)   DRY( 35, 20)   
    DRY( 35, 21)   DRY( 35, 22)   DRY( 35, 23)   DRY( 35, 24)   DRY( 35, 25)   
    DRY( 35, 26)   DRY( 35, 27)   DRY( 35, 28)   DRY( 35, 29)   DRY( 35, 30)   
    DRY( 35, 31)   DRY( 35, 32)   DRY( 35, 33)   DRY( 35, 34)   DRY( 35, 35)   
    DRY( 35, 36)   DRY( 35, 37)   DRY( 35, 38)   DRY( 35, 39)   DRY( 35, 40)   
    DRY( 36,  1)   DRY( 36,  2)   DRY( 36,  3)   DRY( 36,  4)   DRY( 36,  5)   
    DRY( 36,  6)   DRY( 36,  7)   DRY( 36,  8)   DRY( 36,  9)   DRY( 36, 10)   
    DRY( 36, 11)   DRY( 36, 12)   DRY( 36, 13)   DRY( 36, 14)   DRY( 36, 15)   
    DRY( 36, 16)   DRY( 36, 17)   DRY( 36, 18)   DRY( 36, 19)   DRY( 36, 20)   
    DRY( 36, 21)   DRY( 36, 22)   DRY( 36, 23)   DRY( 36, 24)   DRY( 36, 25)   
    DRY( 36, 26)   DRY( 36, 27)   DRY( 36, 28)   DRY( 36, 29)   DRY( 36, 30)   
    DRY( 36, 31)   DRY( 36, 32)   DRY( 36, 33)   DRY( 36, 34)   DRY( 36, 35)   
    DRY( 36, 36)   DRY( 36, 37)   DRY( 36, 38)   DRY( 36, 39)   DRY( 36, 40)   
    DRY( 37,  1)   DRY( 37,  2)   DRY( 37,  3)   DRY( 37,  4)   DRY( 37,  5)   
    DRY( 37,  6)   DRY( 37,  7)   DRY( 37,  8)   DRY( 37,  9)   DRY( 37, 10)   
    DRY( 37, 11)   DRY( 37, 12)   DRY( 37, 13)   DRY( 37, 14)   DRY( 37, 15)   
    DRY( 37, 16)   DRY( 37, 17)   DRY( 37, 18)   DRY( 37, 19)   DRY( 37, 20)   
    DRY( 37, 21)   DRY( 37, 22)   DRY( 37, 23)   DRY( 37, 24)   DRY( 37, 25)   
    DRY( 37, 26)   DRY( 37, 27)   DRY( 37, 28)   DRY( 37, 29)   DRY( 37, 30)   
    DRY( 37, 31)   DRY( 37, 32)   DRY( 37, 33)   DRY( 37, 34)   DRY( 37, 35)   
    DRY( 37, 36)   DRY( 37, 37)   DRY( 37, 38)   DRY( 37, 39)   DRY( 37, 40)   
    DRY( 38,  1)   DRY( 38,  2)   DRY( 38,  3)   DRY( 38,  4)   DRY( 38,  5)   
    DRY( 38,  6)   DRY( 38,  7)   DRY( 38,  8)   DRY( 38,  9)   DRY( 38, 10)   
    DRY( 38, 11)   DRY( 38, 12)   DRY( 38, 13)   DRY( 38, 14)   DRY( 38, 15)   
    DRY( 38, 16)   DRY( 38, 17)   DRY( 38, 18)   DRY( 38, 19)   DRY( 38, 20)   
    DRY( 38, 21)   DRY( 38, 22)   DRY( 38, 23)   DRY( 38, 24)   DRY( 38, 25)   
    DRY( 38, 26)   DRY( 38, 27)   DRY( 38, 28)   DRY( 38, 29)   DRY( 38, 30)   
    DRY( 38, 31)   DRY( 38, 32)   DRY( 38, 33)   DRY( 38, 34)   DRY( 38, 35)   
    DRY( 38, 36)   DRY( 38, 37)   DRY( 38, 38)   DRY( 38, 39)   DRY( 38, 40)   
    DRY( 39,  1)   DRY( 39,  2)   DRY( 39,  3)   DRY( 39,  4)   DRY( 39,  5)   
    DRY( 39,  6)   DRY( 39,  7)   DRY( 39,  8)   DRY( 39,  9)   DRY( 39, 10)   
    DRY( 39, 11)   DRY( 39, 12)   DRY( 39, 13)   DRY( 39, 14)   DRY( 39, 15)   
    DRY( 39, 16)   DRY( 39, 17)   DRY( 39, 18)   DRY( 39, 19)   DRY( 39, 20)   
    DRY( 39, 21)   DRY( 39, 22)   DRY( 39, 23)   DRY( 39, 24)   DRY( 39, 25)   
    DRY( 39, 26)   DRY( 39, 27)   DRY( 39, 28)   DRY( 39, 29)   DRY( 39, 30)   
    DRY( 39, 31)   DRY( 39, 32)   DRY( 39, 33)   DRY( 39, 34)   DRY( 39, 35)   
    DRY( 39, 36)   DRY( 39, 37)   DRY( 39, 38)   DRY( 39, 39)   DRY( 39, 40)   
    DRY( 40,  1)   DRY( 40,  2)   DRY( 40,  3)   DRY( 40,  4)   DRY( 40,  5)   
    DRY( 40,  6)   DRY( 40,  7)   DRY( 40,  8)   DRY( 40,  9)   DRY( 40, 10)   
    DRY( 40, 11)   DRY( 40, 12)   DRY( 40, 13)   DRY( 40, 14)   DRY( 40, 15)   
    DRY( 40, 16)   DRY( 40, 17)   DRY( 40, 18)   DRY( 40, 19)   DRY( 40, 20)   
    DRY( 40, 21)   DRY( 40, 22)   DRY( 40, 23)   DRY( 40, 24)   DRY( 40, 25)   
    DRY( 40, 26)   DRY( 40, 27)   DRY( 40, 28)   DRY( 40, 29)   DRY( 40, 30)   
    DRY( 40, 31)   DRY( 40, 32)   DRY( 40, 33)   DRY( 40, 34)   DRY( 40, 35)   
    DRY( 40, 36)   DRY( 40, 37)   DRY( 40, 38)   DRY( 40, 39)   DRY( 40, 40)   

 CELL CONVERSIONS FOR ITER.=  1  LAYER=  8  STEP=  1  PERIOD=   1   (ROW,COL)
    DRY(  1,  1)   DRY(  1,  2)   DRY(  1,  3)   DRY(  1,  4)   DRY(  1,  5)   
    DRY(  1,  6)   DRY(  1,  7)   DRY(  1,  8)   DRY(  1,  9)   DRY(  1, 10)   
    DRY(  1, 11)   DRY(  1, 12)   DRY(  1, 13)   DRY(  1, 14)   DRY(  1, 15)   
    DRY(  1, 16)   DRY(  1, 17)   DRY(  1, 18)   DRY(  1, 19)   DRY(  1, 20)   
    DRY(  1, 21)   DRY(  1, 22)   DRY(  1, 23)   DRY(  1, 24)   DRY(  1, 25)   
    DRY(  1, 26)   DRY(  1, 27)   DRY(  1, 28)   DRY(  1, 29)   DRY(  1, 30)   
    DRY(  1, 31)   DRY(  1, 32)   DRY(  1, 33)   DRY(  1, 34)   DRY(  1, 35)   
    DRY(  1, 36)   DRY(  1, 37)   DRY(  1, 38)   DRY(  1, 39)   DRY(  1, 40)   
    DRY(  2,  1)   DRY(  2,  2)   DRY(  2,  3)   DRY(  2,  4)   DRY(  2,  5)   
    DRY(  2,  6)   DRY(  2,  7)   DRY(  2,  8)   DRY(  2,  9)   DRY(  2, 10)   
    DRY(  2, 11)   DRY(  2, 12)   DRY(  2, 13)   DRY(  2, 14)   DRY(  2, 15)   
    DRY(  2, 16)   DRY(  2, 17)   DRY(  2, 18)   DRY(  2, 19)   DRY(  2, 20)   
    DRY(  2, 21)   DRY(  2, 22)   DRY(  2, 23)   DRY(  2, 24)   DRY(  2, 25)   
    DRY(  2, 26)   DRY(  2, 27)   DRY(  2, 28)   DRY(  2, 29)   DRY(  2, 30)   
    DRY(  2, 31)   DRY(  2, 32)   DRY(  2, 33)   DRY(  2, 34)   DRY(  2, 35)   
    DRY(  2, 36)   DRY(  2, 37)   DRY(  2, 38)   DRY(  2, 39)   DRY(  2, 40)   
    DRY(  3,  1)   DRY(  3,  2)   DRY(  3,  3)   DRY(  3,  4)   DRY(  3,  5)   
    DRY(  3,  6)   DRY(  3,  7)   DRY(  3,  8)   DRY(  3,  9)   DRY(  3, 10)   
    DRY(  3, 11)   DRY(  3, 12)   DRY(  3, 13)   DRY(  3, 14)   DRY(  3, 15)   
    DRY(  3, 16)   DRY(  3, 17)   DRY(  3, 18)   DRY(  3, 19)   DRY(  3, 20)   
    DRY(  3, 21)   DRY(  3, 22)   DRY(  3, 23)   DRY(  3, 24)   DRY(  3, 25)   
    DRY(  3, 26)   DRY(  3, 27)   DRY(  3, 28)   DRY(  3, 29)   DRY(  3, 30)   
    DRY(  3, 31)   DRY(  3, 32)   DRY(  3, 33)   DRY(  3, 34)   DRY(  3, 35)   
    DRY(  3, 36)   DRY(  3, 37)   DRY(  3, 38)   DRY(  3, 39)   DRY(  3, 40)   
    DRY(  4,  1)   DRY(  4,  2)   DRY(  4,  3)   DRY(  4,  4)   DRY(  4,  5)   
    DRY(  4,  6)   DRY(  4,  7)   DRY(  4,  8)   DRY(  4,  9)   DRY(  4, 10)   
    DRY(  4, 11)   DRY(  4, 12)   DRY(  4, 13)   DRY(  4, 14)   DRY(  4, 15)   
    DRY(  4, 16)   DRY(  4, 17)   DRY(  4, 18)   DRY(  4, 19)   DRY(  4, 20)   
    DRY(  4, 21)   DRY(  4, 22)   DRY(  4, 23)   DRY(  4, 24)   DRY(  4, 25)   
    DRY(  4, 26)   DRY(  4, 27)   DRY(  4, 28)   DRY(  4, 29)   DRY(  4, 30)   
    DRY(  4, 31)   DRY(  4, 32)   DRY(  4, 33)   DRY(  4, 34)   DRY(  4, 35)   
    DRY(  4, 36)   DRY(  4, 37)   DRY(  4, 38)   DRY(  4, 39)   DRY(  4, 40)   
    DRY(  5,  1)   DRY(  5,  2)   DRY(  5,  3)   DRY(  5,  4)   DRY(  5,  5)   
    DRY(  5,  6)   DRY(  5,  7)   DRY(  5,  8)   DRY(  5,  9)   DRY(  5, 10)   
    DRY(  5, 11)   DRY(  5, 12)   DRY(  5, 13)   DRY(  5, 14)   DRY(  5, 15)   
    DRY(  5, 16)   DRY(  5, 17)   DRY(  5, 18)   DRY(  5, 19)   DRY(  5, 20)   
    DRY(  5, 21)   DRY(  5, 22)   DRY(  5, 23)   DRY(  5, 24)   DRY(  5, 25)   
    DRY(  5, 26)   DRY(  5, 27)   DRY(  5, 28)   DRY(  5, 29)   DRY(  5, 30)   
    DRY(  5, 31)   DRY(  5, 32)   DRY(  5, 33)   DRY(  5, 34)   DRY(  5, 35)   
    DRY(  5, 36)   DRY(  5, 37)   DRY(  5, 38)   DRY(  5, 39)   DRY(  5, 40)   
    DRY(  6,  1)   DRY(  6,  2)   DRY(  6,  3)   DRY(  6,  4)   DRY(  6,  5)   
    DRY(  6,  6)   DRY(  6,  7)   DRY(  6,  8)   DRY(  6,  9)   DRY(  6, 10)   
    DRY(  6, 11)   DRY(  6, 12)   DRY(  6, 13)   DRY(  6, 14)   DRY(  6, 15)   
    DRY(  6, 16)   DRY(  6, 17)   DRY(  6, 18)   DRY(  6, 19)   DRY(  6, 20)   
    DRY(  6, 21)   DRY(  6, 22)   DRY(  6, 23)   DRY(  6, 24)   DRY(  6, 25)   
    DRY(  6, 26)   DRY(  6, 27)   DRY(  6, 28)   DRY(  6, 29)   DRY(  6, 30)   
    DRY(  6, 31)   DRY(  6, 32)   DRY(  6, 33)   DRY(  6, 34)   DRY(  6, 35)   
    DRY(  6, 36)   DRY(  6, 37)   DRY(  6, 38)   DRY(  6, 39)   DRY(  6, 40)   
    DRY(  7,  1)   DRY(  7,  2)   DRY(  7,  3)   DRY(  7,  4)   DRY(  7,  5)   
    DRY(  7,  6)   DRY(  7,  7)   DRY(  7,  8)   DRY(  7,  9)   DRY(  7, 10)   
    DRY(  7, 11)   DRY(  7, 12)   DRY(  7, 13)   DRY(  7, 14)   DRY(  7, 15)   
    DRY(  7, 16)   DRY(  7, 17)   DRY(  7, 18)   DRY(  7, 19)   DRY(  7, 20)   
    DRY(  7, 21)   DRY(  7, 22)   DRY(  7, 23)   DRY(  7, 24)   DRY(  7, 25)   
    DRY(  7, 26)   DRY(  7, 27)   DRY(  7, 28)   DRY(  7, 29)   DRY(  7, 30)   
    DRY(  7, 31)   DRY(  7, 32)   DRY(  7, 33)   DRY(  7, 34)   DRY(  7, 35)   
    DRY(  7, 36)   DRY(  7, 37)   DRY(  7, 38)   DRY(  7, 39)   DRY(  7, 40)   
    DRY(  8,  1)   DRY(  8,  2)   DRY(  8,  3)   DRY(  8,  4)   DRY(  8,  5)   
    DRY(  8,  6)   DRY(  8,  7)   DRY(  8,  8)   DRY(  8,  9)   DRY(  8, 10)   
    DRY(  8, 11)   DRY(  8, 12)   DRY(  8, 13)   DRY(  8, 14)   DRY(  8, 15)   
    DRY(  8, 16)   DRY(  8, 17)   DRY(  8, 18)   DRY(  8, 19)   DRY(  8, 20)   
    DRY(  8, 21)   DRY(  8, 22)   DRY(  8, 23)   DRY(  8, 24)   DRY(  8, 25)   
    DRY(  8, 26)   DRY(  8, 27)   DRY(  8, 28)   DRY(  8, 29)   DRY(  8, 30)   
    DRY(  8, 31)   DRY(  8, 32)   DRY(  8, 33)   DRY(  8, 34)   DRY(  8, 35)   
    DRY(  8, 36)   DRY(  8, 37)   DRY(  8, 38)   DRY(  8, 39)   DRY(  8, 40)   
    DRY(  9,  1)   DRY(  9,  2)   DRY(  9,  3)   DRY(  9,  4)   DRY(  9,  5)   
    DRY(  9,  6)   DRY(  9,  7)   DRY(  9,  8)   DRY(  9,  9)   DRY(  9, 10)   
    DRY(  9, 11)   DRY(  9, 12)   DRY(  9, 13)   DRY(  9, 14)   DRY(  9, 15)   
    DRY(  9, 16)   DRY(  9, 17)   DRY(  9, 18)   DRY(  9, 19)   DRY(  9, 20)   
    DRY(  9, 21)   DRY(  9, 22)   DRY(  9, 23)   DRY(  9, 24)   DRY(  9, 25)   
    DRY(  9, 26)   DRY(  9, 27)   DRY(  9, 28)   DRY(  9, 29)   DRY(  9, 30)   
    DRY(  9, 31)   DRY(  9, 32)   DRY(  9, 33)   DRY(  9, 34)   DRY(  9, 35)   
    DRY(  9, 36)   DRY(  9, 37)   DRY(  9, 38)   DRY(  9, 39)   DRY(  9, 40)   
    DRY( 10,  1)   DRY( 10,  2)   DRY( 10,  3)   DRY( 10,  4)   DRY( 10,  5)   
    DRY( 10,  6)   DRY( 10,  7)   DRY( 10,  8)   DRY( 10,  9)   DRY( 10, 10)   
    DRY( 10, 11)   DRY( 10, 12)   DRY( 10, 13)   DRY( 10, 14)   DRY( 10, 15)   
    DRY( 10, 16)   DRY( 10, 17)   DRY( 10, 18)   DRY( 10, 19)   DRY( 10, 20)   
    DRY( 10, 21)   DRY( 10, 22)   DRY( 10, 23)   DRY( 10, 24)   DRY( 10, 25)   
    DRY( 10, 26)   DRY( 10, 27)   DRY( 10, 28)   DRY( 10, 29)   DRY( 10, 30)   
    DRY( 10, 31)   DRY( 10, 32)   DRY( 10, 33)   DRY( 10, 34)   DRY( 10, 35)   
    DRY( 10, 36)   DRY( 10, 37)   DRY( 10, 38)   DRY( 10, 39)   DRY( 10, 40)   
    DRY( 11,  1)   DRY( 11,  2)   DRY( 11,  3)   DRY( 11,  4)   DRY( 11,  5)   
    DRY( 11,  6)   DRY( 11,  7)   DRY( 11,  8)   DRY( 11,  9)   DRY( 11, 10)   
    DRY( 11, 11)   DRY( 11, 12)   DRY( 11, 13)   DRY( 11, 14)   DRY( 11, 15)   
    DRY( 11, 16)   DRY( 11, 17)   DRY( 11, 18)   DRY( 11, 19)   DRY( 11, 20)   
    DRY( 11, 21)   DRY( 11, 22)   DRY( 11, 23)   DRY( 11, 24)   DRY( 11, 25)   
    DRY( 11, 26)   DRY( 11, 27)   DRY( 11, 28)   DRY( 11, 29)   DRY( 11, 30)   
    DRY( 11, 31)   DRY( 11, 32)   DRY( 11, 33)   DRY( 11, 34)   DRY( 11, 35)   
    DRY( 11, 36)   DRY( 11, 37)   DRY( 11, 38)   DRY( 11, 39)   DRY( 11, 40)   
    DRY( 12,  1)   DRY( 12,  2)   DRY( 12,  3)   DRY( 12,  4)   DRY( 12,  5)   
    DRY( 12,  6)   DRY( 12,  7)   DRY( 12,  8)   DRY( 12,  9)   DRY( 12, 10)   
    DRY( 12, 11)   DRY( 12, 12)   DRY( 12, 13)   DRY( 12, 14)   DRY( 12, 15)   
    DRY( 12, 16)   DRY( 12, 17)   DRY( 12, 18)   DRY( 12, 19)   DRY( 12, 20)   
    DRY( 12, 21)   DRY( 12, 22)   DRY( 12, 23)   DRY( 12, 24)   DRY( 12, 25)   
    DRY( 12, 26)   DRY( 12, 27)   DRY( 12, 28)   DRY( 12, 29)   DRY( 12, 30)   
    DRY( 12, 31)   DRY( 12, 32)   DRY( 12, 33)   DRY( 12, 34)   DRY( 12, 35)   
    DRY( 12, 36)   DRY( 12, 37)   DRY( 12, 38)   DRY( 12, 39)   DRY( 12, 40)   
    DRY( 13,  1)   DRY( 13,  2)   DRY( 13,  3)   DRY( 13,  4)   DRY( 13,  5)   
    DRY( 13,  6)   DRY( 13,  7)   DRY( 13,  8)   DRY( 13,  9)   DRY( 13, 10)   
    DRY( 13, 11)   DRY( 13, 12)   DRY( 13, 13)   DRY( 13, 14)   DRY( 13, 15)   
    DRY( 13, 16)   DRY( 13, 17)   DRY( 13, 18)   DRY( 13, 19)   DRY( 13, 20)   
    DRY( 13, 21)   DRY( 13, 22)   DRY( 13, 23)   DRY( 13, 24)   DRY( 13, 25)   
    DRY( 13, 26)   DRY( 13, 27)   DRY( 13, 28)   DRY( 13, 29)   DRY( 13, 30)   
    DRY( 13, 31)   DRY( 13, 32)   DRY( 13, 33)   DRY( 13, 34)   DRY( 13, 35)   
    DRY( 13, 36)   DRY( 13, 37)   DRY( 13, 38)   DRY( 13, 39)   DRY( 13, 40)   
    DRY( 14,  1)   DRY( 14,  2)   DRY( 14,  3)   DRY( 14,  4)   DRY( 14,  5)   
    DRY( 14,  6)   DRY( 14,  7)   DRY( 14,  8)   DRY( 14,  9)   DRY( 14, 10)   
    DRY( 14, 11)   DRY( 14, 12)   DRY( 14, 13)   DRY( 14, 14)   DRY( 14, 15)   
    DRY( 14, 16)   DRY( 14, 17)   DRY( 14, 18)   DRY( 14, 19)   DRY( 14, 20)   
    DRY( 14, 21)   DRY( 14, 22)   DRY( 14, 23)   DRY( 14, 24)   DRY( 14, 25)   
    DRY( 14, 26)   DRY( 14, 27)   DRY( 14, 28)   DRY( 14, 29)   DRY( 14, 30)   
    DRY( 14, 31)   DRY( 14, 32)   DRY( 14, 33)   DRY( 14, 34)   DRY( 14, 35)   
    DRY( 14, 36)   DRY( 14, 37)   DRY( 14, 38)   DRY( 14, 39)   DRY( 14, 40)   
    DRY( 15,  1)   DRY( 15,  2)   DRY( 15,  3)   DRY( 15,  4)   DRY( 15,  5)   
    DRY( 15,  6)   DRY( 15,  7)   DRY( 15,  8)   DRY( 15,  9)   DRY( 15, 10)   
    DRY( 15, 11)   DRY( 15, 12)   DRY( 15, 13)   DRY( 15, 14)   DRY( 15, 15)   
    DRY( 15, 16)   DRY( 15, 17)   DRY( 15, 18)   DRY( 15, 19)   DRY( 15, 20)   
    DRY( 15, 21)   DRY( 15, 22)   DRY( 15, 23)   DRY( 15, 24)   DRY( 15, 25)   
    DRY( 15, 26)   DRY( 15, 27)   DRY( 15, 28)   DRY( 15, 29)   DRY( 15, 30)   
    DRY( 15, 31)   DRY( 15, 32)   DRY( 15, 33)   DRY( 15, 34)   DRY( 15, 35)   
    DRY( 15, 36)   DRY( 15, 37)   DRY( 15, 38)   DRY( 15, 39)   DRY( 15, 40)   
    DRY( 16,  1)   DRY( 16,  2)   DRY( 16,  3)   DRY( 16,  4)   DRY( 16,  5)   
    DRY( 16,  6)   DRY( 16,  7)   DRY( 16,  8)   DRY( 16,  9)   DRY( 16, 10)   
    DRY( 16, 11)   DRY( 16, 12)   DRY( 16, 13)   DRY( 16, 14)   DRY( 16, 15)   
    DRY( 16, 16)   DRY( 16, 17)   DRY( 16, 18)   DRY( 16, 19)   DRY( 16, 20)   
    DRY( 16, 21)   DRY( 16, 22)   DRY( 16, 23)   DRY( 16, 24)   DRY( 16, 25)   
    DRY( 16, 26)   DRY( 16, 27)   DRY( 16, 28)   DRY( 16, 29)   DRY( 16, 30)   
    DRY( 16, 31)   DRY( 16, 32)   DRY( 16, 33)   DRY( 16, 34)   DRY( 16, 35)   
    DRY( 16, 36)   DRY( 16, 37)   DRY( 16, 38)   DRY( 16, 39)   DRY( 16, 40)   
    DRY( 17,  1)   DRY( 17,  2)   DRY( 17,  3)   DRY( 17,  4)   DRY( 17,  5)   
    DRY( 17,  6)   DRY( 17,  7)   DRY( 17,  8)   DRY( 17,  9)   DRY( 17, 10)   
    DRY( 17, 11)   DRY( 17, 12)   DRY( 17, 13)   DRY( 17, 14)   DRY( 17, 15)   
    DRY( 17, 16)   DRY( 17, 17)   DRY( 17, 18)   DRY( 17, 19)   DRY( 17, 20)   
    DRY( 17, 21)   DRY( 17, 22)   DRY( 17, 23)   DRY( 17, 24)   DRY( 17, 25)   
    DRY( 17, 26)   DRY( 17, 27)   DRY( 17, 28)   DRY( 17, 29)   DRY( 17, 30)   
    DRY( 17, 31)   DRY( 17, 32)   DRY( 17, 33)   DRY( 17, 34)   DRY( 17, 35)   
    DRY( 17, 36)   DRY( 17, 37)   DRY( 17, 38)   DRY( 17, 39)   DRY( 17, 40)   
    DRY( 18,  1)   DRY( 18,  2)   DRY( 18,  3)   DRY( 18,  4)   DRY( 18,  5)   
    DRY( 18,  6)   DRY( 18,  7)   DRY( 18,  8)   DRY( 18,  9)   DRY( 18, 10)   
    DRY( 18, 11)   DRY( 18, 12)   DRY( 18, 13)   DRY( 18, 14)   DRY( 18, 15)   
    DRY( 18, 16)   DRY( 18, 17)   DRY( 18, 18)   DRY( 18, 19)   DRY( 18, 20)   
    DRY( 18, 21)   DRY( 18, 22)   DRY( 18, 23)   DRY( 18, 24)   DRY( 18, 25)   
    DRY( 18, 26)   DRY( 18, 27)   DRY( 18, 28)   DRY( 18, 29)   DRY( 18, 30)   
    DRY( 18, 31)   DRY( 18, 32)   DRY( 18, 33)   DRY( 18, 34)   DRY( 18, 35)   
    DRY( 18, 36)   DRY( 18, 37)   DRY( 18, 38)   DRY( 18, 39)   DRY( 18, 40)   
    DRY( 19,  1)   DRY( 19,  2)   DRY( 19,  3)   DRY( 19,  4)   DRY( 19,  5)   
    DRY( 19,  6)   DRY( 19,  7)   DRY( 19,  8)   DRY( 19,  9)   DRY( 19, 10)   
    DRY( 19, 11)   DRY( 19, 12)   DRY( 19, 13)   DRY( 19, 14)   DRY( 19, 15)   
    DRY( 19, 16)   DRY( 19, 17)   DRY( 19, 18)   DRY( 19, 19)   DRY( 19, 20)   
    DRY( 19, 21)   DRY( 19, 22)   DRY( 19, 23)   DRY( 19, 24)   DRY( 19, 25)   
    DRY( 19, 26)   DRY( 19, 27)   DRY( 19, 28)   DRY( 19, 29)   DRY( 19, 30)   
    DRY( 19, 31)   DRY( 19, 32)   DRY( 19, 33)   DRY( 19, 34)   DRY( 19, 35)   
    DRY( 19, 36)   DRY( 19, 37)   DRY( 19, 38)   DRY( 19, 39)   DRY( 19, 40)   
    DRY( 20,  1)   DRY( 20,  2)   DRY( 20,  3)   DRY( 20,  4)   DRY( 20,  5)   
    DRY( 20,  6)   DRY( 20,  7)   DRY( 20,  8)   DRY( 20,  9)   DRY( 20, 10)   
    DRY( 20, 11)   DRY( 20, 12)   DRY( 20, 13)   DRY( 20, 14)   DRY( 20, 15)   
    DRY( 20, 16)   DRY( 20, 17)   DRY( 20, 18)   DRY( 20, 19)   DRY( 20, 20)   
    DRY( 20, 21)   DRY( 20, 22)   DRY( 20, 23)   DRY( 20, 24)   DRY( 20, 25)   
    DRY( 20, 26)   DRY( 20, 27)   DRY( 20, 28)   DRY( 20, 29)   DRY( 20, 30)   
    DRY( 20, 31)   DRY( 20, 32)   DRY( 20, 33)   DRY( 20, 34)   DRY( 20, 35)   
    DRY( 20, 36)   DRY( 20, 37)   DRY( 20, 38)   DRY( 20, 39)   DRY( 20, 40)   
    DRY( 21,  1)   DRY( 21,  2)   DRY( 21,  3)   DRY( 21,  4)   DRY( 21,  5)   
    DRY( 21,  6)   DRY( 21,  7)   DRY( 21,  8)   DRY( 21,  9)   DRY( 21, 10)   
    DRY( 21, 11)   DRY( 21, 12)   DRY( 21, 13)   DRY( 21, 14)   DRY( 21, 15)   
    DRY( 21, 16)   DRY( 21, 17)   DRY( 21, 18)   DRY( 21, 19)   DRY( 21, 20)   
    DRY( 21, 21)   DRY( 21, 22)   DRY( 21, 23)   DRY( 21, 24)   DRY( 21, 25)   
    DRY( 21, 26)   DRY( 21, 27)   DRY( 21, 28)   DRY( 21, 29)   DRY( 21, 30)   
    DRY( 21, 31)   DRY( 21, 32)   DRY( 21, 33)   DRY( 21, 34)   DRY( 21, 35)   
    DRY( 21, 36)   DRY( 21, 37)   DRY( 21, 38)   DRY( 21, 39)   DRY( 21, 40)   
    DRY( 22,  1)   DRY( 22,  2)   DRY( 22,  3)   DRY( 22,  4)   DRY( 22,  5)   
    DRY( 22,  6)   DRY( 22,  7)   DRY( 22,  8)   DRY( 22,  9)   DRY( 22, 10)   
    DRY( 22, 11)   DRY( 22, 12)   DRY( 22, 13)   DRY( 22, 14)   DRY( 22, 15)   
    DRY( 22, 16)   DRY( 22, 17)   DRY( 22, 18)   DRY( 22, 19)   DRY( 22, 20)   
    DRY( 22, 21)   DRY( 22, 22)   DRY( 22, 23)   DRY( 22, 24)   DRY( 22, 25)   
    DRY( 22, 26)   DRY( 22, 27)   DRY( 22, 28)   DRY( 22, 29)   DRY( 22, 30)   
    DRY( 22, 31)   DRY( 22, 32)   DRY( 22, 33)   DRY( 22, 34)   DRY( 22, 35)   
    DRY( 22, 36)   DRY( 22, 37)   DRY( 22, 38)   DRY( 22, 39)   DRY( 22, 40)   
    DRY( 23,  1)   DRY( 23,  2)   DRY( 23,  3)   DRY( 23,  4)   DRY( 23,  5)   
    DRY( 23,  6)   DRY( 23,  7)   DRY( 23,  8)   DRY( 23,  9)   DRY( 23, 10)   
    DRY( 23, 11)   DRY( 23, 12)   DRY( 23, 13)   DRY( 23, 14)   DRY( 23, 15)   
    DRY( 23, 16)   DRY( 23, 17)   DRY( 23, 18)   DRY( 23, 19)   DRY( 23, 20)   
    DRY( 23, 21)   DRY( 23, 22)   DRY( 23, 23)   DRY( 23, 24)   DRY( 23, 25)   
    DRY( 23, 26)   DRY( 23, 27)   DRY( 23, 28)   DRY( 23, 29)   DRY( 23, 30)   
    DRY( 23, 31)   DRY( 23, 32)   DRY( 23, 33)   DRY( 23, 34)   DRY( 23, 35)   
    DRY( 23, 36)   DRY( 23, 37)   DRY( 23, 38)   DRY( 23, 39)   DRY( 23, 40)   
    DRY( 24,  1)   DRY( 24,  2)   DRY( 24,  3)   DRY( 24,  4)   DRY( 24,  5)   
    DRY( 24,  6)   DRY( 24,  7)   DRY( 24,  8)   DRY( 24,  9)   DRY( 24, 10)   
    DRY( 24, 11)   DRY( 24, 12)   DRY( 24, 13)   DRY( 24, 14)   DRY( 24, 15)   
    DRY( 24, 16)   DRY( 24, 17)   DRY( 24, 18)   DRY( 24, 19)   DRY( 24, 20)   
    DRY( 24, 21)   DRY( 24, 22)   DRY( 24, 23)   DRY( 24, 24)   DRY( 24, 25)   
    DRY( 24, 26)   DRY( 24, 27)   DRY( 24, 28)   DRY( 24, 29)   DRY( 24, 30)   
    DRY( 24, 31)   DRY( 24, 32)   DRY( 24, 33)   DRY( 24, 34)   DRY( 24, 35)   
    DRY( 24, 36)   DRY( 24, 37)   DRY( 24, 38)   DRY( 24, 39)   DRY( 24, 40)   
    DRY( 25,  1)   DRY( 25,  2)   DRY( 25,  3)   DRY( 25,  4)   DRY( 25,  5)   
    DRY( 25,  6)   DRY( 25,  7)   DRY( 25,  8)   DRY( 25,  9)   DRY( 25, 10)   
    DRY( 25, 11)   DRY( 25, 12)   DRY( 25, 13)   DRY( 25, 14)   DRY( 25, 15)   
    DRY( 25, 16)   DRY( 25, 17)   DRY( 25, 18)   DRY( 25, 19)   DRY( 25, 20)   
    DRY( 25, 21)   DRY( 25, 22)   DRY( 25, 23)   DRY( 25, 24)   DRY( 25, 25)   
    DRY( 25, 26)   DRY( 25, 27)   DRY( 25, 28)   DRY( 25, 29)   DRY( 25, 30)   
    DRY( 25, 31)   DRY( 25, 32)   DRY( 25, 33)   DRY( 25, 34)   DRY( 25, 35)   
    DRY( 25, 36)   DRY( 25, 37)   DRY( 25, 38)   DRY( 25, 39)   DRY( 25, 40)   
    DRY( 26,  1)   DRY( 26,  2)   DRY( 26,  3)   DRY( 26,  4)   DRY( 26,  5)   
    DRY( 26,  6)   DRY( 26,  7)   DRY( 26,  8)   DRY( 26,  9)   DRY( 26, 10)   
    DRY( 26, 11)   DRY( 26, 12)   DRY( 26, 13)   DRY( 26, 14)   DRY( 26, 15)   
    DRY( 26, 16)   DRY( 26, 17)   DRY( 26, 18)   DRY( 26, 19)   DRY( 26, 20)   
    DRY( 26, 21)   DRY( 26, 22)   DRY( 26, 23)   DRY( 26, 24)   DRY( 26, 25)   
    DRY( 26, 26)   DRY( 26, 27)   DRY( 26, 28)   DRY( 26, 29)   DRY( 26, 30)   
    DRY( 26, 31)   DRY( 26, 32)   DRY( 26, 33)   DRY( 26, 34)   DRY( 26, 35)   
    DRY( 26, 36)   DRY( 26, 37)   DRY( 26, 38)   DRY( 26, 39)   DRY( 26, 40)   
    DRY( 27,  1)   DRY( 27,  2)   DRY( 27,  3)   DRY( 27,  4)   DRY( 27,  5)   
    DRY( 27,  6)   DRY( 27,  7)   DRY( 27,  8)   DRY( 27,  9)   DRY( 27, 10)   
    DRY( 27, 11)   DRY( 27, 12)   DRY( 27, 13)   DRY( 27, 14)   DRY( 27, 15)   
    DRY( 27, 16)   DRY( 27, 17)   DRY( 27, 18)   DRY( 27, 19)   DRY( 27, 20)   
    DRY( 27, 21)   DRY( 27, 22)   DRY( 27, 23)   DRY( 27, 24)   DRY( 27, 25)   
    DRY( 27, 26)   DRY( 27, 27)   DRY( 27, 28)   DRY( 27, 29)   DRY( 27, 30)   
    DRY( 27, 31)   DRY( 27, 32)   DRY( 27, 33)   DRY( 27, 34)   DRY( 27, 35)   
    DRY( 27, 36)   DRY( 27, 37)   DRY( 27, 38)   DRY( 27, 39)   DRY( 27, 40)   
    DRY( 28,  1)   DRY( 28,  2)   DRY( 28,  3)   DRY( 28,  4)   DRY( 28,  5)   
    DRY( 28,  6)   DRY( 28,  7)   DRY( 28,  8)   DRY( 28,  9)   DRY( 28, 10)   
    DRY( 28, 11)   DRY( 28, 12)   DRY( 28, 13)   DRY( 28, 14)   DRY( 28, 15)   
    DRY( 28, 16)   DRY( 28, 17)   DRY( 28, 18)   DRY( 28, 19)   DRY( 28, 20)   
    DRY( 28, 21)   DRY( 28, 22)   DRY( 28, 23)   DRY( 28, 24)   DRY( 28, 25)   
    DRY( 28, 26)   DRY( 28, 27)   DRY( 28, 28)   DRY( 28, 29)   DRY( 28, 30)   
    DRY( 28, 31)   DRY( 28, 32)   DRY( 28, 33)   DRY( 28, 34)   DRY( 28, 35)   
    DRY( 28, 36)   DRY( 28, 37)   DRY( 28, 38)   DRY( 28, 39)   DRY( 28, 40)   
    DRY( 29,  1)   DRY( 29,  2)   DRY( 29,  3)   DRY( 29,  4)   DRY( 29,  5)   
    DRY( 29,  6)   DRY( 29,  7)   DRY( 29,  8)   DRY( 29,  9)   DRY( 29, 10)   
    DRY( 29, 11)   DRY( 29, 12)   DRY( 29, 13)   DRY( 29, 14)   DRY( 29, 15)   
    DRY( 29, 16)   DRY( 29, 17)   DRY( 29, 18)   DRY( 29, 19)   DRY( 29, 20)   
    DRY( 29, 21)   DRY( 29, 22)   DRY( 29, 23)   DRY( 29, 24)   DRY( 29, 25)   
    DRY( 29, 26)   DRY( 29, 27)   DRY( 29, 28)   DRY( 29, 29)   DRY( 29, 30)   
    DRY( 29, 31)   DRY( 29, 32)   DRY( 29, 33)   DRY( 29, 34)   DRY( 29, 35)   
    DRY( 29, 36)   DRY( 29, 37)   DRY( 29, 38)   DRY( 29, 39)   DRY( 29, 40)   
    DRY( 30,  1)   DRY( 30,  2)   DRY( 30,  3)   DRY( 30,  4)   DRY( 30,  5)   
    DRY( 30,  6)   DRY( 30,  7)   DRY( 30,  8)   DRY( 30,  9)   DRY( 30, 10)   
    DRY( 30, 11)   DRY( 30, 12)   DRY( 30, 13)   DRY( 30, 14)   DRY( 30, 15)   
    DRY( 30, 16)   DRY( 30, 17)   DRY( 30, 18)   DRY( 30, 19)   DRY( 30, 20)   
    DRY( 30, 21)   DRY( 30, 22)   DRY( 30, 23)   DRY( 30, 24)   DRY( 30, 25)   
    DRY( 30, 26)   DRY( 30, 27)   DRY( 30, 28)   DRY( 30, 29)   DRY( 30, 30)   
    DRY( 30, 31)   DRY( 30, 32)   DRY( 30, 33)   DRY( 30, 34)   DRY( 30, 35)   
    DRY( 30, 36)   DRY( 30, 37)   DRY( 30, 38)   DRY( 30, 39)   DRY( 30, 40)   
    DRY( 31,  1)   DRY( 31,  2)   DRY( 31,  3)   DRY( 31,  4)   DRY( 31,  5)   
    DRY( 31,  6)   DRY( 31,  7)   DRY( 31,  8)   DRY( 31,  9)   DRY( 31, 10)   
    DRY( 31, 11)   DRY( 31, 12)   DRY( 31, 13)   DRY( 31, 14)   DRY( 31, 15)   
    DRY( 31, 16)   DRY( 31, 17)   DRY( 31, 18)   DRY( 31, 19)   DRY( 31, 20)   
    DRY( 31, 21)   DRY( 31, 22)   DRY( 31, 23)   DRY( 31, 24)   DRY( 31, 25)   
    DRY( 31, 26)   DRY( 31, 27)   DRY( 31, 28)   DRY( 31, 29)   DRY( 31, 30)   
    DRY( 31, 31)   DRY( 31, 32)   DRY( 31, 33)   DRY( 31, 34)   DRY( 31, 35)   
    DRY( 31, 36)   DRY( 31, 37)   DRY( 31, 38)   DRY( 31, 39)   DRY( 31, 40)   
    DRY( 32,  1)   DRY( 32,  2)   DRY( 32,  3)   DRY( 32,  4)   DRY( 32,  5)   
    DRY( 32,  6)   DRY( 32,  7)   DRY( 32,  8)   DRY( 32,  9)   DRY( 32, 10)   
    DRY( 32, 11)   DRY( 32, 12)   DRY( 32, 13)   DRY( 32, 14)   DRY( 32, 15)   
    DRY( 32, 16)   DRY( 32, 17)   DRY( 32, 18)   DRY( 32, 19)   DRY( 32, 20)   
    DRY( 32, 21)   DRY( 32, 22)   DRY( 32, 23)   DRY( 32, 24)   DRY( 32, 25)   
    DRY( 32, 26)   DRY( 32, 27)   DRY( 32, 28)   DRY( 32, 29)   DRY( 32, 30)   
    DRY( 32, 31)   DRY( 32, 32)   DRY( 32, 33)   DRY( 32, 34)   DRY( 32, 35)   
    DRY( 32, 36)   DRY( 32, 37)   DRY( 32, 38)   DRY( 32, 39)   DRY( 32, 40)   
    DRY( 33,  1)   DRY( 33,  2)   DRY( 33,  3)   DRY( 33,  4)   DRY( 33,  5)   
    DRY( 33,  6)   DRY( 33,  7)   DRY( 33,  8)   DRY( 33,  9)   DRY( 33, 10)   
    DRY( 33, 11)   DRY( 33, 12)   DRY( 33, 13)   DRY( 33, 14)   DRY( 33, 15)   
    DRY( 33, 16)   DRY( 33, 17)   DRY( 33, 18)   DRY( 33, 19)   DRY( 33, 20)   
    DRY( 33, 21)   DRY( 33, 22)   DRY( 33, 23)   DRY( 33, 24)   DRY( 33, 25)   
    DRY( 33, 26)   DRY( 33, 27)   DRY( 33, 28)   DRY( 33, 29)   DRY( 33, 30)   
    DRY( 33, 31)   DRY( 33, 32)   DRY( 33, 33)   DRY( 33, 34)   DRY( 33, 35)   
    DRY( 33, 36)   DRY( 33, 37)   DRY( 33, 38)   DRY( 33, 39)   DRY( 33, 40)   
    DRY( 34,  1)   DRY( 34,  2)   DRY( 34,  3)   DRY( 34,  4)   DRY( 34,  5)   
    DRY( 34,  6)   DRY( 34,  7)   DRY( 34,  8)   DRY( 34,  9)   DRY( 34, 10)   
    DRY( 34, 11)   DRY( 34, 12)   DRY( 34, 13)   DRY( 34, 14)   DRY( 34, 15)   
    DRY( 34, 16)   DRY( 34, 17)   DRY( 34, 18)   DRY( 34, 19)   DRY( 34, 20)   
    DRY( 34, 21)   DRY( 34, 22)   DRY( 34, 23)   DRY( 34, 24)   DRY( 34, 25)   
    DRY( 34, 26)   DRY( 34, 27)   DRY( 34, 28)   DRY( 34, 29)   DRY( 34, 30)   
    DRY( 34, 31)   DRY( 34, 32)   DRY( 34, 33)   DRY( 34, 34)   DRY( 34, 35)   
    DRY( 34, 36)   DRY( 34, 37)   DRY( 34, 38)   DRY( 34, 39)   DRY( 34, 40)   
    DRY( 35,  1)   DRY( 35,  2)   DRY( 35,  3)   DRY( 35,  4)   DRY( 35,  5)   
    DRY( 35,  6)   DRY( 35,  7)   DRY( 35,  8)   DRY( 35,  9)   DRY( 35, 10)   
    DRY( 35, 11)   DRY( 35, 12)   DRY( 35, 13)   DRY( 35, 14)   DRY( 35, 15)   
    DRY( 35, 16)   DRY( 35, 17)   DRY( 35, 18)   DRY( 35, 19)   DRY( 35, 20)   
    DRY( 35, 21)   DRY( 35, 22)   DRY( 35, 23)   DRY( 35, 24)   DRY( 35, 25)   
    DRY( 35, 26)   DRY( 35, 27)   DRY( 35, 28)   DRY( 35, 29)   DRY( 35, 30)   
    DRY( 35, 31)   DRY( 35, 32)   DRY( 35, 33)   DRY( 35, 34)   DRY( 35, 35)   
    DRY( 35, 36)   DRY( 35, 37)   DRY( 35, 38)   DRY( 35, 39)   DRY( 35, 40)   
    DRY( 36,  1)   DRY( 36,  2)   DRY( 36,  3)   DRY( 36,  4)   DRY( 36,  5)   
    DRY( 36,  6)   DRY( 36,  7)   DRY( 36,  8)   DRY( 36,  9)   DRY( 36, 10)   
    DRY( 36, 11)   DRY( 36, 12)   DRY( 36, 13)   DRY( 36, 14)   DRY( 36, 15)   
    DRY( 36, 16)   DRY( 36, 17)   DRY( 36, 18)   DRY( 36, 19)   DRY( 36, 20)   
    DRY( 36, 21)   DRY( 36, 22)   DRY( 36, 23)   DRY( 36, 24)   DRY( 36, 25)   
    DRY( 36, 26)   DRY( 36, 27)   DRY( 36, 28)   DRY( 36, 29)   DRY( 36, 30)   
    DRY( 36, 31)   DRY( 36, 32)   DRY( 36, 33)   DRY( 36, 34)   DRY( 36, 35)   
    DRY( 36, 36)   DRY( 36, 37)   DRY( 36, 38)   DRY( 36, 39)   DRY( 36, 40)   
    DRY( 37,  1)   DRY( 37,  2)   DRY( 37,  3)   DRY( 37,  4)   DRY( 37,  5)   
    DRY( 37,  6)   DRY( 37,  7)   DRY( 37,  8)   DRY( 37,  9)   DRY( 37, 10)   
    DRY( 37, 11)   DRY( 37, 12)   DRY( 37, 13)   DRY( 37, 14)   DRY( 37, 15)   
    DRY( 37, 16)   DRY( 37, 17)   DRY( 37, 18)   DRY( 37, 19)   DRY( 37, 20)   
    DRY( 37, 21)   DRY( 37, 22)   DRY( 37, 23)   DRY( 37, 24)   DRY( 37, 25)   
    DRY( 37, 26)   DRY( 37, 27)   DRY( 37, 28)   DRY( 37, 29)   DRY( 37, 30)   
    DRY( 37, 31)   DRY( 37, 32)   DRY( 37, 33)   DRY( 37, 34)   DRY( 37, 35)   
    DRY( 37, 36)   DRY( 37, 37)   DRY( 37, 38)   DRY( 37, 39)   DRY( 37, 40)   
    DRY( 38,  1)   DRY( 38,  2)   DRY( 38,  3)   DRY( 38,  4)   DRY( 38,  5)   
    DRY( 38,  6)   DRY( 38,  7)   DRY( 38,  8)   DRY( 38,  9)   DRY( 38, 10)   
    DRY( 38, 11)   DRY( 38, 12)   DRY( 38, 13)   DRY( 38, 14)   DRY( 38, 15)   
    DRY( 38, 16)   DRY( 38, 17)   DRY( 38, 18)   DRY( 38, 19)   DRY( 38, 20)   
    DRY( 38, 21)   DRY( 38, 22)   DRY( 38, 23)   DRY( 38, 24)   DRY( 38, 25)   
    DRY( 38, 26)   DRY( 38, 27)   DRY( 38, 28)   DRY( 38, 29)   DRY( 38, 30)   
    DRY( 38, 31)   DRY( 38, 32)   DRY( 38, 33)   DRY( 38, 34)   DRY( 38, 35)   
    DRY( 38, 36)   DRY( 38, 37)   DRY( 38, 38)   DRY( 38, 39)   DRY( 38, 40)   
    DRY( 39,  1)   DRY( 39,  2)   DRY( 39,  3)   DRY( 39,  4)   DRY( 39,  5)   
    DRY( 39,  6)   DRY( 39,  7)   DRY( 39,  8)   DRY( 39,  9)   DRY( 39, 10)   
    DRY( 39, 11)   DRY( 39, 12)   DRY( 39, 13)   DRY( 39, 14)   DRY( 39, 15)   
    DRY( 39, 16)   DRY( 39, 17)   DRY( 39, 18)   DRY( 39, 19)   DRY( 39, 20)   
    DRY( 39, 21)   DRY( 39, 22)   DRY( 39, 23)   DRY( 39, 24)   DRY( 39, 25)   
    DRY( 39, 26)   DRY( 39, 27)   DRY( 39, 28)   DRY( 39, 29)   DRY( 39, 30)   
    DRY( 39, 31)   DRY( 39, 32)   DRY( 39, 33)   DRY( 39, 34)   DRY( 39, 35)   
    DRY( 39, 36)   DRY( 39, 37)   DRY( 39, 38)   DRY( 39, 39)   DRY( 39, 40)   
    DRY( 40,  1)   DRY( 40,  2)   DRY( 40,  3)   DRY( 40,  4)   DRY( 40,  5)   
    DRY( 40,  6)   DRY( 40,  7)   DRY( 40,  8)   DRY( 40,  9)   DRY( 40, 10)   
    DRY( 40, 11)   DRY( 40, 12)   DRY( 40, 13)   DRY( 40, 14)   DRY( 40, 15)   
    DRY( 40, 16)   DRY( 40, 17)   DRY( 40, 18)   DRY( 40, 19)   DRY( 40, 20)   
    DRY( 40, 21)   DRY( 40, 22)   DRY( 40, 23)   DRY( 40, 24)   DRY( 40, 25)   
    DRY( 40, 26)   DRY( 40, 27)   DRY( 40, 28)   DRY( 40, 29)   DRY( 40, 30)   
    DRY( 40, 31)   DRY( 40, 32)   DRY( 40, 33)   DRY( 40, 34)   DRY( 40, 35)   
    DRY( 40, 36)   DRY( 40, 37)   DRY( 40, 38)   DRY( 40, 39)   DRY( 40, 40)   

 CELL CONVERSIONS FOR ITER.=  1  LAYER=  9  STEP=  1  PERIOD=   1   (ROW,COL)
    DRY(  1,  1)   DRY(  1,  2)   DRY(  1,  3)   DRY(  1,  4)   DRY(  1,  5)   
    DRY(  1,  6)   DRY(  1,  7)   DRY(  1,  8)   DRY(  1,  9)   DRY(  1, 10)   
    DRY(  1, 11)   DRY(  1, 12)   DRY(  1, 13)   DRY(  1, 14)   DRY(  1, 15)   
    DRY(  1, 16)   DRY(  1, 17)   DRY(  1, 18)   DRY(  1, 19)   DRY(  1, 20)   
    DRY(  1, 21)   DRY(  1, 22)   DRY(  1, 23)   DRY(  1, 24)   DRY(  1, 25)   
    DRY(  1, 26)   DRY(  1, 27)   DRY(  1, 28)   DRY(  1, 29)   DRY(  1, 30)   
    DRY(  1, 31)   DRY(  1, 32)   DRY(  1, 33)   DRY(  1, 34)   DRY(  1, 35)   
    DRY(  1, 36)   DRY(  1, 37)   DRY(  1, 38)   DRY(  1, 39)   DRY(  1, 40)   
    DRY(  2,  1)   DRY(  2,  2)   DRY(  2,  3)   DRY(  2,  4)   DRY(  2,  5)   
    DRY(  2,  6)   DRY(  2,  7)   DRY(  2,  8)   DRY(  2,  9)   DRY(  2, 10)   
    DRY(  2, 11)   DRY(  2, 12)   DRY(  2, 13)   DRY(  2, 14)   DRY(  2, 15)   
    DRY(  2, 16)   DRY(  2, 17)   DRY(  2, 18)   DRY(  2, 19)   DRY(  2, 20)   
    DRY(  2, 21)   DRY(  2, 22)   DRY(  2, 23)   DRY(  2, 24)   DRY(  2, 25)   
    DRY(  2, 26)   DRY(  2, 27)   DRY(  2, 28)   DRY(  2, 29)   DRY(  2, 30)   
    DRY(  2, 31)   DRY(  2, 32)   DRY(  2, 33)   DRY(  2, 34)   DRY(  2, 35)   
    DRY(  2, 36)   DRY(  2, 37)   DRY(  2, 38)   DRY(  2, 39)   DRY(  2, 40)   
    DRY(  3,  1)   DRY(  3,  2)   DRY(  3,  3)   DRY(  3,  4)   DRY(  3,  5)   
    DRY(  3,  6)   DRY(  3,  7)   DRY(  3,  8)   DRY(  3,  9)   DRY(  3, 10)   
    DRY(  3, 11)   DRY(  3, 12)   DRY(  3, 13)   DRY(  3, 14)   DRY(  3, 15)   
    DRY(  3, 16)   DRY(  3, 17)   DRY(  3, 18)   DRY(  3, 19)   DRY(  3, 20)   
    DRY(  3, 21)   DRY(  3, 22)   DRY(  3, 23)   DRY(  3, 24)   DRY(  3, 25)   
    DRY(  3, 26)   DRY(  3, 27)   DRY(  3, 28)   DRY(  3, 29)   DRY(  3, 30)   
    DRY(  3, 31)   DRY(  3, 32)   DRY(  3, 33)   DRY(  3, 34)   DRY(  3, 35)   
    DRY(  3, 36)   DRY(  3, 37)   DRY(  3, 38)   DRY(  3, 39)   DRY(  3, 40)   
    DRY(  4,  1)   DRY(  4,  2)   DRY(  4,  3)   DRY(  4,  4)   DRY(  4,  5)   
    DRY(  4,  6)   DRY(  4,  7)   DRY(  4,  8)   DRY(  4,  9)   DRY(  4, 10)   
    DRY(  4, 11)   DRY(  4, 12)   DRY(  4, 13)   DRY(  4, 14)   DRY(  4, 15)   
    DRY(  4, 16)   DRY(  4, 17)   DRY(  4, 18)   DRY(  4, 19)   DRY(  4, 20)   
    DRY(  4, 21)   DRY(  4, 22)   DRY(  4, 23)   DRY(  4, 24)   DRY(  4, 25)   
    DRY(  4, 26)   DRY(  4, 27)   DRY(  4, 28)   DRY(  4, 29)   DRY(  4, 30)   
    DRY(  4, 31)   DRY(  4, 32)   DRY(  4, 33)   DRY(  4, 34)   DRY(  4, 35)   
    DRY(  4, 36)   DRY(  4, 37)   DRY(  4, 38)   DRY(  4, 39)   DRY(  4, 40)   
    DRY(  5,  1)   DRY(  5,  2)   DRY(  5,  3)   DRY(  5,  4)   DRY(  5,  5)   
    DRY(  5,  6)   DRY(  5,  7)   DRY(  5,  8)   DRY(  5,  9)   DRY(  5, 10)   
    DRY(  5, 11)   DRY(  5, 12)   DRY(  5, 13)   DRY(  5, 14)   DRY(  5, 15)   
    DRY(  5, 16)   DRY(  5, 17)   DRY(  5, 18)   DRY(  5, 19)   DRY(  5, 20)   
    DRY(  5, 21)   DRY(  5, 22)   DRY(  5, 23)   DRY(  5, 24)   DRY(  5, 25)   
    DRY(  5, 26)   DRY(  5, 27)   DRY(  5, 28)   DRY(  5, 29)   DRY(  5, 30)   
    DRY(  5, 31)   DRY(  5, 32)   DRY(  5, 33)   DRY(  5, 34)   DRY(  5, 35)   
    DRY(  5, 36)   DRY(  5, 37)   DRY(  5, 38)   DRY(  5, 39)   DRY(  5, 40)   
    DRY(  6,  1)   DRY(  6,  2)   DRY(  6,  3)   DRY(  6,  4)   DRY(  6,  5)   
    DRY(  6,  6)   DRY(  6,  7)   DRY(  6,  8)   DRY(  6,  9)   DRY(  6, 10)   
    DRY(  6, 11)   DRY(  6, 12)   DRY(  6, 13)   DRY(  6, 14)   DRY(  6, 15)   
    DRY(  6, 16)   DRY(  6, 17)   DRY(  6, 18)   DRY(  6, 19)   DRY(  6, 20)   
    DRY(  6, 21)   DRY(  6, 22)   DRY(  6, 23)   DRY(  6, 24)   DRY(  6, 25)   
    DRY(  6, 26)   DRY(  6, 27)   DRY(  6, 28)   DRY(  6, 29)   DRY(  6, 30)   
    DRY(  6, 31)   DRY(  6, 32)   DRY(  6, 33)   DRY(  6, 34)   DRY(  6, 35)   
    DRY(  6, 36)   DRY(  6, 37)   DRY(  6, 38)   DRY(  6, 39)   DRY(  6, 40)   
    DRY(  7,  1)   DRY(  7,  2)   DRY(  7,  3)   DRY(  7,  4)   DRY(  7,  5)   
    DRY(  7,  6)   DRY(  7,  7)   DRY(  7,  8)   DRY(  7,  9)   DRY(  7, 10)   
    DRY(  7, 11)   DRY(  7, 12)   DRY(  7, 13)   DRY(  7, 14)   DRY(  7, 15)   
    DRY(  7, 16)   DRY(  7, 17)   DRY(  7, 18)   DRY(  7, 19)   DRY(  7, 20)   
    DRY(  7, 21)   DRY(  7, 22)   DRY(  7, 23)   DRY(  7, 24)   DRY(  7, 25)   
    DRY(  7, 26)   DRY(  7, 27)   DRY(  7, 28)   DRY(  7, 29)   DRY(  7, 30)   
    DRY(  7, 31)   DRY(  7, 32)   DRY(  7, 33)   DRY(  7, 34)   DRY(  7, 35)   
    DRY(  7, 36)   DRY(  7, 37)   DRY(  7, 38)   DRY(  7, 39)   DRY(  7, 40)   
    DRY(  8,  1)   DRY(  8,  2)   DRY(  8,  3)   DRY(  8,  4)   DRY(  8,  5)   
    DRY(  8,  6)   DRY(  8,  7)   DRY(  8,  8)   DRY(  8,  9)   DRY(  8, 10)   
    DRY(  8, 11)   DRY(  8, 12)   DRY(  8, 13)   DRY(  8, 14)   DRY(  8, 15)   
    DRY(  8, 16)   DRY(  8, 17)   DRY(  8, 18)   DRY(  8, 19)   DRY(  8, 20)   
    DRY(  8, 21)   DRY(  8, 22)   DRY(  8, 23)   DRY(  8, 24)   DRY(  8, 25)   
    DRY(  8, 26)   DRY(  8, 27)   DRY(  8, 28)   DRY(  8, 29)   DRY(  8, 30)   
    DRY(  8, 31)   DRY(  8, 32)   DRY(  8, 33)   DRY(  8, 34)   DRY(  8, 35)   
    DRY(  8, 36)   DRY(  8, 37)   DRY(  8, 38)   DRY(  8, 39)   DRY(  8, 40)   
    DRY(  9,  1)   DRY(  9,  2)   DRY(  9,  3)   DRY(  9,  4)   DRY(  9,  5)   
    DRY(  9,  6)   DRY(  9,  7)   DRY(  9,  8)   DRY(  9,  9)   DRY(  9, 10)   
    DRY(  9, 11)   DRY(  9, 12)   DRY(  9, 13)   DRY(  9, 14)   DRY(  9, 15)   
    DRY(  9, 16)   DRY(  9, 17)   DRY(  9, 18)   DRY(  9, 19)   DRY(  9, 20)   
    DRY(  9, 21)   DRY(  9, 22)   DRY(  9, 23)   DRY(  9, 24)   DRY(  9, 25)   
    DRY(  9, 26)   DRY(  9, 27)   DRY(  9, 28)   DRY(  9, 29)   DRY(  9, 30)   
    DRY(  9, 31)   DRY(  9, 32)   DRY(  9, 33)   DRY(  9, 34)   DRY(  9, 35)   
    DRY(  9, 36)   DRY(  9, 37)   DRY(  9, 38)   DRY(  9, 39)   DRY(  9, 40)   
    DRY( 10,  1)   DRY( 10,  2)   DRY( 10,  3)   DRY( 10,  4)   DRY( 10,  5)   
    DRY( 10,  6)   DRY( 10,  7)   DRY( 10,  8)   DRY( 10,  9)   DRY( 10, 10)   
    DRY( 10, 11)   DRY( 10, 12)   DRY( 10, 13)   DRY( 10, 14)   DRY( 10, 15)   
    DRY( 10, 16)   DRY( 10, 17)   DRY( 10, 18)   DRY( 10, 19)   DRY( 10, 20)   
    DRY( 10, 21)   DRY( 10, 22)   DRY( 10, 23)   DRY( 10, 24)   DRY( 10, 25)   
    DRY( 10, 26)   DRY( 10, 27)   DRY( 10, 28)   DRY( 10, 29)   DRY( 10, 30)   
    DRY( 10, 31)   DRY( 10, 32)   DRY( 10, 33)   DRY( 10, 34)   DRY( 10, 35)   
    DRY( 10, 36)   DRY( 10, 37)   DRY( 10, 38)   DRY( 10, 39)   DRY( 10, 40)   
    DRY( 11,  1)   DRY( 11,  2)   DRY( 11,  3)   DRY( 11,  4)   DRY( 11,  5)   
    DRY( 11,  6)   DRY( 11,  7)   DRY( 11,  8)   DRY( 11,  9)   DRY( 11, 10)   
    DRY( 11, 11)   DRY( 11, 12)   DRY( 11, 13)   DRY( 11, 14)   DRY( 11, 15)   
    DRY( 11, 16)   DRY( 11, 17)   DRY( 11, 18)   DRY( 11, 19)   DRY( 11, 20)   
    DRY( 11, 21)   DRY( 11, 22)   DRY( 11, 23)   DRY( 11, 24)   DRY( 11, 25)   
    DRY( 11, 26)   DRY( 11, 27)   DRY( 11, 28)   DRY( 11, 29)   DRY( 11, 30)   
    DRY( 11, 31)   DRY( 11, 32)   DRY( 11, 33)   DRY( 11, 34)   DRY( 11, 35)   
    DRY( 11, 36)   DRY( 11, 37)   DRY( 11, 38)   DRY( 11, 39)   DRY( 11, 40)   
    DRY( 12,  1)   DRY( 12,  2)   DRY( 12,  3)   DRY( 12,  4)   DRY( 12,  5)   
    DRY( 12,  6)   DRY( 12,  7)   DRY( 12,  8)   DRY( 12,  9)   DRY( 12, 10)   
    DRY( 12, 11)   DRY( 12, 12)   DRY( 12, 13)   DRY( 12, 14)   DRY( 12, 15)   
    DRY( 12, 16)   DRY( 12, 17)   DRY( 12, 18)   DRY( 12, 19)   DRY( 12, 20)   
    DRY( 12, 21)   DRY( 12, 22)   DRY( 12, 23)   DRY( 12, 24)   DRY( 12, 25)   
    DRY( 12, 26)   DRY( 12, 27)   DRY( 12, 28)   DRY( 12, 29)   DRY( 12, 30)   
    DRY( 12, 31)   DRY( 12, 32)   DRY( 12, 33)   DRY( 12, 34)   DRY( 12, 35)   
    DRY( 12, 36)   DRY( 12, 37)   DRY( 12, 38)   DRY( 12, 39)   DRY( 12, 40)   
    DRY( 13,  1)   DRY( 13,  2)   DRY( 13,  3)   DRY( 13,  4)   DRY( 13,  5)   
    DRY( 13,  6)   DRY( 13,  7)   DRY( 13,  8)   DRY( 13,  9)   DRY( 13, 10)   
    DRY( 13, 11)   DRY( 13, 12)   DRY( 13, 13)   DRY( 13, 14)   DRY( 13, 15)   
    DRY( 13, 16)   DRY( 13, 17)   DRY( 13, 18)   DRY( 13, 19)   DRY( 13, 20)   
    DRY( 13, 21)   DRY( 13, 22)   DRY( 13, 23)   DRY( 13, 24)   DRY( 13, 25)   
    DRY( 13, 26)   DRY( 13, 27)   DRY( 13, 28)   DRY( 13, 29)   DRY( 13, 30)   
    DRY( 13, 31)   DRY( 13, 32)   DRY( 13, 33)   DRY( 13, 34)   DRY( 13, 35)   
    DRY( 13, 36)   DRY( 13, 37)   DRY( 13, 38)   DRY( 13, 39)   DRY( 13, 40)   
    DRY( 14,  1)   DRY( 14,  2)   DRY( 14,  3)   DRY( 14,  4)   DRY( 14,  5)   
    DRY( 14,  6)   DRY( 14,  7)   DRY( 14,  8)   DRY( 14,  9)   DRY( 14, 10)   
    DRY( 14, 11)   DRY( 14, 12)   DRY( 14, 13)   DRY( 14, 14)   DRY( 14, 15)   
    DRY( 14, 16)   DRY( 14, 17)   DRY( 14, 18)   DRY( 14, 19)   DRY( 14, 20)   
    DRY( 14, 21)   DRY( 14, 22)   DRY( 14, 23)   DRY( 14, 24)   DRY( 14, 25)   
    DRY( 14, 26)   DRY( 14, 27)   DRY( 14, 28)   DRY( 14, 29)   DRY( 14, 30)   
    DRY( 14, 31)   DRY( 14, 32)   DRY( 14, 33)   DRY( 14, 34)   DRY( 14, 35)   
    DRY( 14, 36)   DRY( 14, 37)   DRY( 14, 38)   DRY( 14, 39)   DRY( 14, 40)   
    DRY( 15,  1)   DRY( 15,  2)   DRY( 15,  3)   DRY( 15,  4)   DRY( 15,  5)   
    DRY( 15,  6)   DRY( 15,  7)   DRY( 15,  8)   DRY( 15,  9)   DRY( 15, 10)   
    DRY( 15, 11)   DRY( 15, 12)   DRY( 15, 13)   DRY( 15, 14)   DRY( 15, 15)   
    DRY( 15, 16)   DRY( 15, 17)   DRY( 15, 18)   DRY( 15, 19)   DRY( 15, 20)   
    DRY( 15, 21)   DRY( 15, 22)   DRY( 15, 23)   DRY( 15, 24)   DRY( 15, 25)   
    DRY( 15, 26)   DRY( 15, 27)   DRY( 15, 28)   DRY( 15, 29)   DRY( 15, 30)   
    DRY( 15, 31)   DRY( 15, 32)   DRY( 15, 33)   DRY( 15, 34)   DRY( 15, 35)   
    DRY( 15, 36)   DRY( 15, 37)   DRY( 15, 38)   DRY( 15, 39)   DRY( 15, 40)   
    DRY( 16,  1)   DRY( 16,  2)   DRY( 16,  3)   DRY( 16,  4)   DRY( 16,  5)   
    DRY( 16,  6)   DRY( 16,  7)   DRY( 16,  8)   DRY( 16,  9)   DRY( 16, 10)   
    DRY( 16, 11)   DRY( 16, 12)   DRY( 16, 13)   DRY( 16, 14)   DRY( 16, 15)   
    DRY( 16, 16)   DRY( 16, 17)   DRY( 16, 18)   DRY( 16, 19)   DRY( 16, 20)   
    DRY( 16, 21)   DRY( 16, 22)   DRY( 16, 23)   DRY( 16, 24)   DRY( 16, 25)   
    DRY( 16, 26)   DRY( 16, 27)   DRY( 16, 28)   DRY( 16, 29)   DRY( 16, 30)   
    DRY( 16, 31)   DRY( 16, 32)   DRY( 16, 33)   DRY( 16, 34)   DRY( 16, 35)   
    DRY( 16, 36)   DRY( 16, 37)   DRY( 16, 38)   DRY( 16, 39)   DRY( 16, 40)   
    DRY( 17,  1)   DRY( 17,  2)   DRY( 17,  3)   DRY( 17,  4)   DRY( 17,  5)   
    DRY( 17,  6)   DRY( 17,  7)   DRY( 17,  8)   DRY( 17,  9)   DRY( 17, 10)   
    DRY( 17, 11)   DRY( 17, 12)   DRY( 17, 13)   DRY( 17, 14)   DRY( 17, 15)   
    DRY( 17, 16)   DRY( 17, 17)   DRY( 17, 18)   DRY( 17, 19)   DRY( 17, 20)   
    DRY( 17, 21)   DRY( 17, 22)   DRY( 17, 23)   DRY( 17, 24)   DRY( 17, 25)   
    DRY( 17, 26)   DRY( 17, 27)   DRY( 17, 28)   DRY( 17, 29)   DRY( 17, 30)   
    DRY( 17, 31)   DRY( 17, 32)   DRY( 17, 33)   DRY( 17, 34)   DRY( 17, 35)   
    DRY( 17, 36)   DRY( 17, 37)   DRY( 17, 38)   DRY( 17, 39)   DRY( 17, 40)   
    DRY( 18,  1)   DRY( 18,  2)   DRY( 18,  3)   DRY( 18,  4)   DRY( 18,  5)   
    DRY( 18,  6)   DRY( 18,  7)   DRY( 18,  8)   DRY( 18,  9)   DRY( 18, 10)   
    DRY( 18, 11)   DRY( 18, 12)   DRY( 18, 13)   DRY( 18, 14)   DRY( 18, 15)   
    DRY( 18, 16)   DRY( 18, 17)   DRY( 18, 18)   DRY( 18, 19)   DRY( 18, 20)   
    DRY( 18, 21)   DRY( 18, 22)   DRY( 18, 23)   DRY( 18, 24)   DRY( 18, 25)   
    DRY( 18, 26)   DRY( 18, 27)   DRY( 18, 28)   DRY( 18, 29)   DRY( 18, 30)   
    DRY( 18, 31)   DRY( 18, 32)   DRY( 18, 33)   DRY( 18, 34)   DRY( 18, 35)   
    DRY( 18, 36)   DRY( 18, 37)   DRY( 18, 38)   DRY( 18, 39)   DRY( 18, 40)   
    DRY( 19,  1)   DRY( 19,  2)   DRY( 19,  3)   DRY( 19,  4)   DRY( 19,  5)   
    DRY( 19,  6)   DRY( 19,  7)   DRY( 19,  8)   DRY( 19,  9)   DRY( 19, 10)   
    DRY( 19, 11)   DRY( 19, 12)   DRY( 19, 13)   DRY( 19, 14)   DRY( 19, 15)   
    DRY( 19, 16)   DRY( 19, 17)   DRY( 19, 18)   DRY( 19, 19)   DRY( 19, 20)   
    DRY( 19, 21)   DRY( 19, 22)   DRY( 19, 23)   DRY( 19, 24)   DRY( 19, 25)   
    DRY( 19, 26)   DRY( 19, 27)   DRY( 19, 28)   DRY( 19, 29)   DRY( 19, 30)   
    DRY( 19, 31)   DRY( 19, 32)   DRY( 19, 33)   DRY( 19, 34)   DRY( 19, 35)   
    DRY( 19, 36)   DRY( 19, 37)   DRY( 19, 38)   DRY( 19, 39)   DRY( 19, 40)   
    DRY( 20,  1)   DRY( 20,  2)   DRY( 20,  3)   DRY( 20,  4)   DRY( 20,  5)   
    DRY( 20,  6)   DRY( 20,  7)   DRY( 20,  8)   DRY( 20,  9)   DRY( 20, 10)   
    DRY( 20, 11)   DRY( 20, 12)   DRY( 20, 13)   DRY( 20, 14)   DRY( 20, 15)   
    DRY( 20, 16)   DRY( 20, 17)   DRY( 20, 18)   DRY( 20, 19)   DRY( 20, 20)   
    DRY( 20, 21)   DRY( 20, 22)   DRY( 20, 23)   DRY( 20, 24)   DRY( 20, 25)   
    DRY( 20, 26)   DRY( 20, 27)   DRY( 20, 28)   DRY( 20, 29)   DRY( 20, 30)   
    DRY( 20, 31)   DRY( 20, 32)   DRY( 20, 33)   DRY( 20, 34)   DRY( 20, 35)   
    DRY( 20, 36)   DRY( 20, 37)   DRY( 20, 38)   DRY( 20, 39)   DRY( 20, 40)   
    DRY( 21,  1)   DRY( 21,  2)   DRY( 21,  3)   DRY( 21,  4)   DRY( 21,  5)   
    DRY( 21,  6)   DRY( 21,  7)   DRY( 21,  8)   DRY( 21,  9)   DRY( 21, 10)   
    DRY( 21, 11)   DRY( 21, 12)   DRY( 21, 13)   DRY( 21, 14)   DRY( 21, 15)   
    DRY( 21, 16)   DRY( 21, 17)   DRY( 21, 18)   DRY( 21, 19)   DRY( 21, 20)   
    DRY( 21, 21)   DRY( 21, 22)   DRY( 21, 23)   DRY( 21, 24)   DRY( 21, 25)   
    DRY( 21, 26)   DRY( 21, 27)   DRY( 21, 28)   DRY( 21, 29)   DRY( 21, 30)   
    DRY( 21, 31)   DRY( 21, 32)   DRY( 21, 33)   DRY( 21, 34)   DRY( 21, 35)   
    DRY( 21, 36)   DRY( 21, 37)   DRY( 21, 38)   DRY( 21, 39)   DRY( 21, 40)   
    DRY( 22,  1)   DRY( 22,  2)   DRY( 22,  3)   DRY( 22,  4)   DRY( 22,  5)   
    DRY( 22,  6)   DRY( 22,  7)   DRY( 22,  8)   DRY( 22,  9)   DRY( 22, 10)   
    DRY( 22, 11)   DRY( 22, 12)   DRY( 22, 13)   DRY( 22, 14)   DRY( 22, 15)   
    DRY( 22, 16)   DRY( 22, 17)   DRY( 22, 18)   DRY( 22, 19)   DRY( 22, 20)   
    DRY( 22, 21)   DRY( 22, 22)   DRY( 22, 23)   DRY( 22, 24)   DRY( 22, 25)   
    DRY( 22, 26)   DRY( 22, 27)   DRY( 22, 28)   DRY( 22, 29)   DRY( 22, 30)   
    DRY( 22, 31)   DRY( 22, 32)   DRY( 22, 33)   DRY( 22, 34)   DRY( 22, 35)   
    DRY( 22, 36)   DRY( 22, 37)   DRY( 22, 38)   DRY( 22, 39)   DRY( 22, 40)   
    DRY( 23,  1)   DRY( 23,  2)   DRY( 23,  3)   DRY( 23,  4)   DRY( 23,  5)   
    DRY( 23,  6)   DRY( 23,  7)   DRY( 23,  8)   DRY( 23,  9)   DRY( 23, 10)   
    DRY( 23, 11)   DRY( 23, 12)   DRY( 23, 13)   DRY( 23, 14)   DRY( 23, 15)   
    DRY( 23, 16)   DRY( 23, 17)   DRY( 23, 18)   DRY( 23, 19)   DRY( 23, 20)   
    DRY( 23, 21)   DRY( 23, 22)   DRY( 23, 23)   DRY( 23, 24)   DRY( 23, 25)   
    DRY( 23, 26)   DRY( 23, 27)   DRY( 23, 28)   DRY( 23, 29)   DRY( 23, 30)   
    DRY( 23, 31)   DRY( 23, 32)   DRY( 23, 33)   DRY( 23, 34)   DRY( 23, 35)   
    DRY( 23, 36)   DRY( 23, 37)   DRY( 23, 38)   DRY( 23, 39)   DRY( 23, 40)   
    DRY( 24,  1)   DRY( 24,  2)   DRY( 24,  3)   DRY( 24,  4)   DRY( 24,  5)   
    DRY( 24,  6)   DRY( 24,  7)   DRY( 24,  8)   DRY( 24,  9)   DRY( 24, 10)   
    DRY( 24, 11)   DRY( 24, 12)   DRY( 24, 13)   DRY( 24, 14)   DRY( 24, 15)   
    DRY( 24, 16)   DRY( 24, 17)   DRY( 24, 18)   DRY( 24, 19)   DRY( 24, 20)   
    DRY( 24, 21)   DRY( 24, 22)   DRY( 24, 23)   DRY( 24, 24)   DRY( 24, 25)   
    DRY( 24, 26)   DRY( 24, 27)   DRY( 24, 28)   DRY( 24, 29)   DRY( 24, 30)   
    DRY( 24, 31)   DRY( 24, 32)   DRY( 24, 33)   DRY( 24, 34)   DRY( 24, 35)   
    DRY( 24, 36)   DRY( 24, 37)   DRY( 24, 38)   DRY( 24, 39)   DRY( 24, 40)   
    DRY( 25,  1)   DRY( 25,  2)   DRY( 25,  3)   DRY( 25,  4)   DRY( 25,  5)   
    DRY( 25,  6)   DRY( 25,  7)   DRY( 25,  8)   DRY( 25,  9)   DRY( 25, 10)   
    DRY( 25, 11)   DRY( 25, 12)   DRY( 25, 13)   DRY( 25, 14)   DRY( 25, 15)   
    DRY( 25, 16)   DRY( 25, 17)   DRY( 25, 18)   DRY( 25, 19)   DRY( 25, 20)   
    DRY( 25, 21)   DRY( 25, 22)   DRY( 25, 23)   DRY( 25, 24)   DRY( 25, 25)   
    DRY( 25, 26)   DRY( 25, 27)   DRY( 25, 28)   DRY( 25, 29)   DRY( 25, 30)   
    DRY( 25, 31)   DRY( 25, 32)   DRY( 25, 33)   DRY( 25, 34)   DRY( 25, 35)   
    DRY( 25, 36)   DRY( 25, 37)   DRY( 25, 38)   DRY( 25, 39)   DRY( 25, 40)   
    DRY( 26,  1)   DRY( 26,  2)   DRY( 26,  3)   DRY( 26,  4)   DRY( 26,  5)   
    DRY( 26,  6)   DRY( 26,  7)   DRY( 26,  8)   DRY( 26,  9)   DRY( 26, 10)   
    DRY( 26, 11)   DRY( 26, 12)   DRY( 26, 13)   DRY( 26, 14)   DRY( 26, 15)   
    DRY( 26, 16)   DRY( 26, 17)   DRY( 26, 18)   DRY( 26, 19)   DRY( 26, 20)   
    DRY( 26, 21)   DRY( 26, 22)   DRY( 26, 23)   DRY( 26, 24)   DRY( 26, 25)   
    DRY( 26, 26)   DRY( 26, 27)   DRY( 26, 28)   DRY( 26, 29)   DRY( 26, 30)   
    DRY( 26, 31)   DRY( 26, 32)   DRY( 26, 33)   DRY( 26, 34)   DRY( 26, 35)   
    DRY( 26, 36)   DRY( 26, 37)   DRY( 26, 38)   DRY( 26, 39)   DRY( 26, 40)   
    DRY( 27,  1)   DRY( 27,  2)   DRY( 27,  3)   DRY( 27,  4)   DRY( 27,  5)   
    DRY( 27,  6)   DRY( 27,  7)   DRY( 27,  8)   DRY( 27,  9)   DRY( 27, 10)   
    DRY( 27, 11)   DRY( 27, 12)   DRY( 27, 13)   DRY( 27, 14)   DRY( 27, 15)   
    DRY( 27, 16)   DRY( 27, 17)   DRY( 27, 18)   DRY( 27, 19)   DRY( 27, 20)   
    DRY( 27, 21)   DRY( 27, 22)   DRY( 27, 23)   DRY( 27, 24)   DRY( 27, 25)   
    DRY( 27, 26)   DRY( 27, 27)   DRY( 27, 28)   DRY( 27, 29)   DRY( 27, 30)   
    DRY( 27, 31)   DRY( 27, 32)   DRY( 27, 33)   DRY( 27, 34)   DRY( 27, 35)   
    DRY( 27, 36)   DRY( 27, 37)   DRY( 27, 38)   DRY( 27, 39)   DRY( 27, 40)   
    DRY( 28,  1)   DRY( 28,  2)   DRY( 28,  3)   DRY( 28,  4)   DRY( 28,  5)   
    DRY( 28,  6)   DRY( 28,  7)   DRY( 28,  8)   DRY( 28,  9)   DRY( 28, 10)   
    DRY( 28, 11)   DRY( 28, 12)   DRY( 28, 13)   DRY( 28, 14)   DRY( 28, 15)   
    DRY( 28, 16)   DRY( 28, 17)   DRY( 28, 18)   DRY( 28, 19)   DRY( 28, 20)   
    DRY( 28, 21)   DRY( 28, 22)   DRY( 28, 23)   DRY( 28, 24)   DRY( 28, 25)   
    DRY( 28, 26)   DRY( 28, 27)   DRY( 28, 28)   DRY( 28, 29)   DRY( 28, 30)   
    DRY( 28, 31)   DRY( 28, 32)   DRY( 28, 33)   DRY( 28, 34)   DRY( 28, 35)   
    DRY( 28, 36)   DRY( 28, 37)   DRY( 28, 38)   DRY( 28, 39)   DRY( 28, 40)   
    DRY( 29,  1)   DRY( 29,  2)   DRY( 29,  3)   DRY( 29,  4)   DRY( 29,  5)   
    DRY( 29,  6)   DRY( 29,  7)   DRY( 29,  8)   DRY( 29,  9)   DRY( 29, 10)   
    DRY( 29, 11)   DRY( 29, 12)   DRY( 29, 13)   DRY( 29, 14)   DRY( 29, 15)   
    DRY( 29, 16)   DRY( 29, 17)   DRY( 29, 18)   DRY( 29, 19)   DRY( 29, 20)   
    DRY( 29, 21)   DRY( 29, 22)   DRY( 29, 23)   DRY( 29, 24)   DRY( 29, 25)   
    DRY( 29, 26)   DRY( 29, 27)   DRY( 29, 28)   DRY( 29, 29)   DRY( 29, 30)   
    DRY( 29, 31)   DRY( 29, 32)   DRY( 29, 33)   DRY( 29, 34)   DRY( 29, 35)   
    DRY( 29, 36)   DRY( 29, 37)   DRY( 29, 38)   DRY( 29, 39)   DRY( 29, 40)   
    DRY( 30,  1)   DRY( 30,  2)   DRY( 30,  3)   DRY( 30,  4)   DRY( 30,  5)   
    DRY( 30,  6)   DRY( 30,  7)   DRY( 30,  8)   DRY( 30,  9)   DRY( 30, 10)   
    DRY( 30, 11)   DRY( 30, 12)   DRY( 30, 13)   DRY( 30, 14)   DRY( 30, 15)   
    DRY( 30, 16)   DRY( 30, 17)   DRY( 30, 18)   DRY( 30, 19)   DRY( 30, 20)   
    DRY( 30, 21)   DRY( 30, 22)   DRY( 30, 23)   DRY( 30, 24)   DRY( 30, 25)   
    DRY( 30, 26)   DRY( 30, 27)   DRY( 30, 28)   DRY( 30, 29)   DRY( 30, 30)   
    DRY( 30, 31)   DRY( 30, 32)   DRY( 30, 33)   DRY( 30, 34)   DRY( 30, 35)   
    DRY( 30, 36)   DRY( 30, 37)   DRY( 30, 38)   DRY( 30, 39)   DRY( 30, 40)   
    DRY( 31,  1)   DRY( 31,  2)   DRY( 31,  3)   DRY( 31,  4)   DRY( 31,  5)   
    DRY( 31,  6)   DRY( 31,  7)   DRY( 31,  8)   DRY( 31,  9)   DRY( 31, 10)   
    DRY( 31, 11)   DRY( 31, 12)   DRY( 31, 13)   DRY( 31, 14)   DRY( 31, 15)   
    DRY( 31, 16)   DRY( 31, 17)   DRY( 31, 18)   DRY( 31, 19)   DRY( 31, 20)   
    DRY( 31, 21)   DRY( 31, 22)   DRY( 31, 23)   DRY( 31, 24)   DRY( 31, 25)   
    DRY( 31, 26)   DRY( 31, 27)   DRY( 31, 28)   DRY( 31, 29)   DRY( 31, 30)   
    DRY( 31, 31)   DRY( 31, 32)   DRY( 31, 33)   DRY( 31, 34)   DRY( 31, 35)   
    DRY( 31, 36)   DRY( 31, 37)   DRY( 31, 38)   DRY( 31, 39)   DRY( 31, 40)   
    DRY( 32,  1)   DRY( 32,  2)   DRY( 32,  3)   DRY( 32,  4)   DRY( 32,  5)   
    DRY( 32,  6)   DRY( 32,  7)   DRY( 32,  8)   DRY( 32,  9)   DRY( 32, 10)   
    DRY( 32, 11)   DRY( 32, 12)   DRY( 32, 13)   DRY( 32, 14)   DRY( 32, 15)   
    DRY( 32, 16)   DRY( 32, 17)   DRY( 32, 18)   DRY( 32, 19)   DRY( 32, 20)   
    DRY( 32, 21)   DRY( 32, 22)   DRY( 32, 23)   DRY( 32, 24)   DRY( 32, 25)   
    DRY( 32, 26)   DRY( 32, 27)   DRY( 32, 28)   DRY( 32, 29)   DRY( 32, 30)   
    DRY( 32, 31)   DRY( 32, 32)   DRY( 32, 33)   DRY( 32, 34)   DRY( 32, 35)   
    DRY( 32, 36)   DRY( 32, 37)   DRY( 32, 38)   DRY( 32, 39)   DRY( 32, 40)   
    DRY( 33,  1)   DRY( 33,  2)   DRY( 33,  3)   DRY( 33,  4)   DRY( 33,  5)   
    DRY( 33,  6)   DRY( 33,  7)   DRY( 33,  8)   DRY( 33,  9)   DRY( 33, 10)   
    DRY( 33, 11)   DRY( 33, 12)   DRY( 33, 13)   DRY( 33, 14)   DRY( 33, 15)   
    DRY( 33, 16)   DRY( 33, 17)   DRY( 33, 18)   DRY( 33, 19)   DRY( 33, 20)   
    DRY( 33, 21)   DRY( 33, 22)   DRY( 33, 23)   DRY( 33, 24)   DRY( 33, 25)   
    DRY( 33, 26)   DRY( 33, 27)   DRY( 33, 28)   DRY( 33, 29)   DRY( 33, 30)   
    DRY( 33, 31)   DRY( 33, 32)   DRY( 33, 33)   DRY( 33, 34)   DRY( 33, 35)   
    DRY( 33, 36)   DRY( 33, 37)   DRY( 33, 38)   DRY( 33, 39)   DRY( 33, 40)   
    DRY( 34,  1)   DRY( 34,  2)   DRY( 34,  3)   DRY( 34,  4)   DRY( 34,  5)   
    DRY( 34,  6)   DRY( 34,  7)   DRY( 34,  8)   DRY( 34,  9)   DRY( 34, 10)   
    DRY( 34, 11)   DRY( 34, 12)   DRY( 34, 13)   DRY( 34, 14)   DRY( 34, 15)   
    DRY( 34, 16)   DRY( 34, 17)   DRY( 34, 18)   DRY( 34, 19)   DRY( 34, 20)   
    DRY( 34, 21)   DRY( 34, 22)   DRY( 34, 23)   DRY( 34, 24)   DRY( 34, 25)   
    DRY( 34, 26)   DRY( 34, 27)   DRY( 34, 28)   DRY( 34, 29)   DRY( 34, 30)   
    DRY( 34, 31)   DRY( 34, 32)   DRY( 34, 33)   DRY( 34, 34)   DRY( 34, 35)   
    DRY( 34, 36)   DRY( 34, 37)   DRY( 34, 38)   DRY( 34, 39)   DRY( 34, 40)   
    DRY( 35,  1)   DRY( 35,  2)   DRY( 35,  3)   DRY( 35,  4)   DRY( 35,  5)   
    DRY( 35,  6)   DRY( 35,  7)   DRY( 35,  8)   DRY( 35,  9)   DRY( 35, 10)   
    DRY( 35, 11)   DRY( 35, 12)   DRY( 35, 13)   DRY( 35, 14)   DRY( 35, 15)   
    DRY( 35, 16)   DRY( 35, 17)   DRY( 35, 18)   DRY( 35, 19)   DRY( 35, 20)   
    DRY( 35, 21)   DRY( 35, 22)   DRY( 35, 23)   DRY( 35, 24)   DRY( 35, 25)   
    DRY( 35, 26)   DRY( 35, 27)   DRY( 35, 28)   DRY( 35, 29)   DRY( 35, 30)   
    DRY( 35, 31)   DRY( 35, 32)   DRY( 35, 33)   DRY( 35, 34)   DRY( 35, 35)   
    DRY( 35, 36)   DRY( 35, 37)   DRY( 35, 38)   DRY( 35, 39)   DRY( 35, 40)   
    DRY( 36,  1)   DRY( 36,  2)   DRY( 36,  3)   DRY( 36,  4)   DRY( 36,  5)   
    DRY( 36,  6)   DRY( 36,  7)   DRY( 36,  8)   DRY( 36,  9)   DRY( 36, 10)   
    DRY( 36, 11)   DRY( 36, 12)   DRY( 36, 13)   DRY( 36, 14)   DRY( 36, 15)   
    DRY( 36, 16)   DRY( 36, 17)   DRY( 36, 18)   DRY( 36, 19)   DRY( 36, 20)   
    DRY( 36, 21)   DRY( 36, 22)   DRY( 36, 23)   DRY( 36, 24)   DRY( 36, 25)   
    DRY( 36, 26)   DRY( 36, 27)   DRY( 36, 28)   DRY( 36, 29)   DRY( 36, 30)   
    DRY( 36, 31)   DRY( 36, 32)   DRY( 36, 33)   DRY( 36, 34)   DRY( 36, 35)   
    DRY( 36, 36)   DRY( 36, 37)   DRY( 36, 38)   DRY( 36, 39)   DRY( 36, 40)   
    DRY( 37,  1)   DRY( 37,  2)   DRY( 37,  3)   DRY( 37,  4)   DRY( 37,  5)   
    DRY( 37,  6)   DRY( 37,  7)   DRY( 37,  8)   DRY( 37,  9)   DRY( 37, 10)   
    DRY( 37, 11)   DRY( 37, 12)   DRY( 37, 13)   DRY( 37, 14)   DRY( 37, 15)   
    DRY( 37, 16)   DRY( 37, 17)   DRY( 37, 18)   DRY( 37, 19)   DRY( 37, 20)   
    DRY( 37, 21)   DRY( 37, 22)   DRY( 37, 23)   DRY( 37, 24)   DRY( 37, 25)   
    DRY( 37, 26)   DRY( 37, 27)   DRY( 37, 28)   DRY( 37, 29)   DRY( 37, 30)   
    DRY( 37, 31)   DRY( 37, 32)   DRY( 37, 33)   DRY( 37, 34)   DRY( 37, 35)   
    DRY( 37, 36)   DRY( 37, 37)   DRY( 37, 38)   DRY( 37, 39)   DRY( 37, 40)   
    DRY( 38,  1)   DRY( 38,  2)   DRY( 38,  3)   DRY( 38,  4)   DRY( 38,  5)   
    DRY( 38,  6)   DRY( 38,  7)   DRY( 38,  8)   DRY( 38,  9)   DRY( 38, 10)   
    DRY( 38, 11)   DRY( 38, 12)   DRY( 38, 13)   DRY( 38, 14)   DRY( 38, 15)   
    DRY( 38, 16)   DRY( 38, 17)   DRY( 38, 18)   DRY( 38, 19)   DRY( 38, 20)   
    DRY( 38, 21)   DRY( 38, 22)   DRY( 38, 23)   DRY( 38, 24)   DRY( 38, 25)   
    DRY( 38, 26)   DRY( 38, 27)   DRY( 38, 28)   DRY( 38, 29)   DRY( 38, 30)   
    DRY( 38, 31)   DRY( 38, 32)   DRY( 38, 33)   DRY( 38, 34)   DRY( 38, 35)   
    DRY( 38, 36)   DRY( 38, 37)   DRY( 38, 38)   DRY( 38, 39)   DRY( 38, 40)   
    DRY( 39,  1)   DRY( 39,  2)   DRY( 39,  3)   DRY( 39,  4)   DRY( 39,  5)   
    DRY( 39,  6)   DRY( 39,  7)   DRY( 39,  8)   DRY( 39,  9)   DRY( 39, 10)   
    DRY( 39, 11)   DRY( 39, 12)   DRY( 39, 13)   DRY( 39, 14)   DRY( 39, 15)   
    DRY( 39, 16)   DRY( 39, 17)   DRY( 39, 18)   DRY( 39, 19)   DRY( 39, 20)   
    DRY( 39, 21)   DRY( 39, 22)   DRY( 39, 23)   DRY( 39, 24)   DRY( 39, 25)   
    DRY( 39, 26)   DRY( 39, 27)   DRY( 39, 28)   DRY( 39, 29)   DRY( 39, 30)   
    DRY( 39, 31)   DRY( 39, 32)   DRY( 39, 33)   DRY( 39, 34)   DRY( 39, 35)   
    DRY( 39, 36)   DRY( 39, 37)   DRY( 39, 38)   DRY( 39, 39)   DRY( 39, 40)   
    DRY( 40,  1)   DRY( 40,  2)   DRY( 40,  3)   DRY( 40,  4)   DRY( 40,  5)   
    DRY( 40,  6)   DRY( 40,  7)   DRY( 40,  8)   DRY( 40,  9)   DRY( 40, 10)   
    DRY( 40, 11)   DRY( 40, 12)   DRY( 40, 13)   DRY( 40, 14)   DRY( 40, 15)   
    DRY( 40, 16)   DRY( 40, 17)   DRY( 40, 18)   DRY( 40, 19)   DRY( 40, 20)   
    DRY( 40, 21)   DRY( 40, 22)   DRY( 40, 23)   DRY( 40, 24)   DRY( 40, 25)   
    DRY( 40, 26)   DRY( 40, 27)   DRY( 40, 28)   DRY( 40, 29)   DRY( 40, 30)   
    DRY( 40, 31)   DRY( 40, 32)   DRY( 40, 33)   DRY( 40, 34)   DRY( 40, 35)   
    DRY( 40, 36)   DRY( 40, 37)   DRY( 40, 38)   DRY( 40, 39)   DRY( 40, 40)   

 CELL CONVERSIONS FOR ITER.=  2  LAYER=  9  STEP=  1  PERIOD=   1   (ROW,COL)
    WET(  1,  1)   WET(  1,  2)   WET(  1,  3)   WET(  1,  4)   WET(  1,  5)   
    WET(  1,  6)   WET(  1,  7)   WET(  1,  8)   WET(  1,  9)   WET(  1, 10)   
    WET(  1, 11)   WET(  1, 12)   WET(  1, 13)   WET(  1, 14)   WET(  1, 15)   
    WET(  1, 16)   WET(  1, 17)   WET(  2,  1)   WET(  2,  2)   WET(  2,  3)   
    WET(  2,  4)   WET(  2,  5)   WET(  2,  6)   WET(  2,  7)   WET(  2,  8)   
    WET(  2,  9)   WET(  2, 10)   WET(  2, 11)   WET(  2, 12)   WET(  2, 13)   
    WET(  2, 14)   WET(  2, 15)   WET(  2, 16)   WET(  2, 17)   WET(  3,  1)   
    WET(  3,  2)   WET(  3,  3)   WET(  3,  4)   WET(  3,  5)   WET(  3,  6)   
    WET(  3,  7)   WET(  3,  8)   WET(  3,  9)   WET(  3, 10)   WET(  3, 11)   
    WET(  3, 12)   WET(  3, 13)   WET(  3, 14)   WET(  3, 15)   WET(  3, 16)   
    WET(  3, 17)   WET(  4,  1)   WET(  4,  2)   WET(  4,  3)   WET(  4,  4)   
    WET(  4,  5)   WET(  4,  6)   WET(  4,  7)   WET(  4,  8)   WET(  4,  9)   
    WET(  4, 10)   WET(  4, 11)   WET(  4, 12)   WET(  4, 13)   WET(  4, 14)   
    WET(  4, 15)   WET(  4, 16)   WET(  4, 17)   WET(  5,  1)   WET(  5,  2)   
    WET(  5,  3)   WET(  5,  4)   WET(  5,  5)   WET(  5,  6)   WET(  5,  7)   
    WET(  5,  8)   WET(  5,  9)   WET(  5, 10)   WET(  5, 11)   WET(  5, 12)   
    WET(  5, 13)   WET(  5, 14)   WET(  5, 15)   WET(  5, 16)   WET(  5, 17)   
    WET(  6,  1)   WET(  6,  2)   WET(  6,  3)   WET(  6,  4)   WET(  6,  5)   
    WET(  6,  6)   WET(  6,  7)   WET(  6,  8)   WET(  6,  9)   WET(  6, 10)   
    WET(  6, 11)   WET(  6, 12)   WET(  6, 13)   WET(  6, 14)   WET(  6, 15)   
    WET(  6, 16)   WET(  7,  1)   WET(  7,  2)   WET(  7,  3)   WET(  7,  4)   
    WET(  7,  5)   WET(  7,  6)   WET(  7,  7)   WET(  7,  8)   WET(  7,  9)   
    WET(  7, 10)   WET(  7, 11)   WET(  7, 12)   WET(  7, 13)   WET(  7, 14)   
    WET(  7, 15)   WET(  7, 16)   WET(  8,  1)   WET(  8,  2)   WET(  8,  3)   
    WET(  8,  4)   WET(  8,  5)   WET(  8,  6)   WET(  8,  7)   WET(  8,  8)   
    WET(  8,  9)   WET(  8, 10)   WET(  8, 11)   WET(  8, 12)   WET(  8, 13)   
    WET(  8, 14)   WET(  8, 15)   WET(  9,  1)   WET(  9,  2)   WET(  9,  3)   
    WET(  9,  4)   WET(  9,  5)   WET(  9,  6)   WET(  9,  7)   WET(  9,  8)   
    WET(  9,  9)   WET(  9, 10)   WET(  9, 11)   WET(  9, 12)   WET(  9, 13)   
    WET(  9, 14)   WET(  9, 15)   WET( 10,  1)   WET( 10,  2)   WET( 10,  3)   
    WET( 10,  4)   WET( 10,  5)   WET( 10,  6)   WET( 10,  7)   WET( 10,  8)   
    WET( 10,  9)   WET( 10, 10)   WET( 10, 11)   WET( 10, 12)   WET( 10, 13)   
    WET( 10, 14)   WET( 11,  1)   WET( 11,  2)   WET( 11,  3)   WET( 11,  4)   
    WET( 11,  5)   WET( 11,  6)   WET( 11,  7)   WET( 11,  8)   WET( 11,  9)   
    WET( 11, 10)   WET( 11, 11)   WET( 11, 12)   WET( 11, 13)   WET( 11, 14)   
    WET( 12,  1)   WET( 12,  2)   WET( 12,  3)   WET( 12,  4)   WET( 12,  5)   
    WET( 12,  6)   WET( 12,  7)   WET( 12,  8)   WET( 12,  9)   WET( 12, 10)   
    WET( 12, 11)   WET( 12, 12)   WET( 12, 13)   WET( 13,  1)   WET( 13,  2)   
    WET( 13,  3)   WET( 13,  4)   WET( 13,  5)   WET( 13,  6)   WET( 13,  7)   
    WET( 13,  8)   WET( 13,  9)   WET( 13, 10)   WET( 13, 11)   WET( 13, 12)   
    WET( 14,  1)   WET( 14,  2)   WET( 14,  3)   WET( 14,  4)   WET( 14,  5)   
    WET( 14,  6)   WET( 14,  7)   WET( 14,  8)   WET( 14,  9)   WET( 14, 10)   
    WET( 14, 11)   WET( 15,  1)   WET( 15,  2)   WET( 15,  3)   WET( 15,  4)   
    WET( 15,  5)   WET( 15,  6)   WET( 15,  7)   WET( 15,  8)   WET( 15,  9)   
    WET( 16,  1)   WET( 16,  2)   WET( 16,  3)   WET( 16,  4)   WET( 16,  5)   
    WET( 16,  6)   WET( 16,  7)   WET( 17,  1)   WET( 17,  2)   WET( 17,  3)   
    WET( 17,  4)   WET( 17,  5)   

 CELL CONVERSIONS FOR ITER.=  4  LAYER=  9  STEP=  1  PERIOD=   1   (ROW,COL)
    DRY(  1, 17)   DRY(  2, 17)   DRY(  3, 16)   DRY(  3, 17)   DRY(  4, 16)   
    DRY(  4, 17)   DRY(  5, 16)   DRY(  5, 17)   DRY(  6, 15)   DRY(  6, 16)   
    DRY(  7, 15)   DRY(  7, 16)   DRY(  8, 14)   DRY(  8, 15)   DRY(  9, 14)   
    DRY(  9, 15)   DRY( 10, 13)   DRY( 10, 14)   DRY( 11, 12)   DRY( 11, 13)   
    DRY( 11, 14)   DRY( 12, 11)   DRY( 12, 12)   DRY( 12, 13)   DRY( 13, 10)   
    DRY( 13, 11)   DRY( 13, 12)   DRY( 14,  8)   DRY( 14,  9)   DRY( 14, 10)   
    DRY( 14, 11)   DRY( 15,  6)   DRY( 15,  7)   DRY( 15,  8)   DRY( 15,  9)   
    DRY( 16,  3)   DRY( 16,  4)   DRY( 16,  5)   DRY( 16,  6)   DRY( 16,  7)   
    DRY( 17,  1)   DRY( 17,  2)   DRY( 17,  3)   DRY( 17,  4)   DRY( 17,  5)   


     5 CALLS TO PCG ROUTINE FOR TIME STEP   1 IN STRESS PERIOD    1
    43 TOTAL ITERATIONS

 MAXIMUM HEAD CHANGE FOR EACH ITERATION (1 INDICATES THE FIRST INNER ITERATION):

    HEAD CHANGE    HEAD CHANGE    HEAD CHANGE    HEAD CHANGE    HEAD CHANGE 
   LAYER,ROW,COL  LAYER,ROW,COL  LAYER,ROW,COL  LAYER,ROW,COL  LAYER,ROW,COL
 ---------------------------------------------------------------------------
  1   18.48      0   5.323      0   3.807      0   1.049      0 -0.5470    
   ( 10,  1,  1)  ( 14,  4,  1)  ( 10,  3,  3)  ( 10,  2,  6)  ( 14,  3,  3)
  0 -0.1559      0 -0.1121      0 -0.4739E-01  0 -0.2684E-01  0 -0.1103E-01
   ( 14,  2,  5)  ( 14,  4,  8)  ( 14,  4, 11)  ( 14, 14,  3)  ( 14,  1, 16)
  0 -0.5400E-02  0 -0.2364E-02  0 -0.1256E-02  0 -0.6045E-03  0 -0.3422E-03
   ( 14, 21,  1)  ( 14, 20,  4)  ( 14, 25,  4)  ( 14, 27,  2)  ( 14, 32,  2)
  0 -0.1247E-03  0 -0.5796E-04  1  -24.33      0   3.078      0  0.3934    
   ( 14,  7, 32)  ( 14, 28, 24)  ( 10,  1,  1)  ( 14,  1,  1)  ( 14, 20,  1)
  0 -0.1579      0 -0.4088E-01  0 -0.2703E-01  0 -0.1245E-01  0 -0.4593E-02
   ( 14,  1, 20)  ( 12,  1, 19)  ( 14,  1,  1)  ( 14,  1,  1)  ( 14,  1, 28)
  0 -0.1844E-02  0 -0.1335E-02  0  0.6090E-03  0 -0.2299E-03  0 -0.2011E-03
   ( 14, 31,  1)  ( 13,  2,  2)  ( 13,  2, 19)  ( 14,  2, 37)  ( 13,  1, 19)
  0  0.5984E-04  1 -0.4586E-01  0 -0.9981E-02  0  0.2302E-02  0  0.2684E-02
   ( 14,  5, 36)  (  9,  1,  1)  ( 13,  3,  1)  ( 14,  1,  1)  ( 14,  1,  1)
  0  0.1670E-03  0  0.3107E-03  0  0.8139E-04  1 -0.2006E-02  0  0.4371E-03
   ( 14,  1,  1)  ( 11,  2,  2)  ( 11,  2,  2)  (  9,  2,  2)  ( 14,  2,  2)
  0  0.2154E-03  0  0.3152E-04  1  0.3753E-04
   ( 14,  2,  2)  ( 14,  2,  1)  ( 14,  1,  1)

 MAXIMUM RESIDUAL FOR EACH ITERATION (1 INDICATES THE FIRST INNER ITERATION):

    RESIDUAL       RESIDUAL       RESIDUAL       RESIDUAL       RESIDUAL    
   LAYER,ROW,COL  LAYER,ROW,COL  LAYER,ROW,COL  LAYER,ROW,COL  LAYER,ROW,COL
 ---------------------------------------------------------------------------
  1  -617.0      0  -539.6      0  -233.4      0  -110.9      0  -43.12    
   ( 10,  1,  2)  ( 10,  2,  2)  ( 10,  2,  2)  ( 10,  1,  2)  ( 10,  1,  1)
  0  -21.06      0  -8.534      0   5.186      0   2.891      0   1.029    
   ( 10,  1,  1)  ( 10,  1,  1)  ( 11,  2,  2)  ( 11,  2,  2)  ( 11,  2,  2)
  0 -0.4739      0 -0.2776      0 -0.1425      0 -0.7337E-01  0 -0.2895E-01
   ( 10,  1,  3)  ( 10,  1,  3)  ( 10,  1,  3)  ( 10,  1,  3)  ( 10,  1,  3)
  0 -0.1315E-01  0 -0.8864E-02  1  -246.0      0   48.53      0  -17.86    
   ( 11,  2,  2)  ( 11,  2,  2)  ( 14,  2,  2)  ( 13,  2,  2)  (  9,  1,  1)
  0  -8.595      0  -5.505      0  -2.458      0  -1.222      0 -0.7490    
   (  9,  1,  1)  ( 11,  2,  2)  (  9,  1,  1)  (  9,  1,  1)  (  9,  1,  1)
  0 -0.4268      0 -0.2166      0 -0.1207      0 -0.7486E-01  0 -0.4063E-01
   (  9,  1,  1)  (  9,  1,  1)  (  9,  1,  1)  (  9,  1,  1)  (  9,  1,  1)
  0 -0.2201E-01  1   4.739      0  0.7049      0  0.3990      0 -0.1570    
   (  9,  1,  1)  (  9,  1,  1)  (  9,  1,  1)  (  9,  1,  1)  ( 11,  2,  2)
  0 -0.1193      0 -0.3774E-01  0  0.1997E-01  1  0.3330      0  0.1136    
   ( 11,  2,  2)  ( 11,  2,  2)  ( 14,  2,  2)  (  9,  2,  2)  (  9,  2,  2)
  0  0.2609E-01  0  0.1640E-01  1  0.3467E-01
   (  9,  2,  2)  (  9,  2,  2)  (  9,  2,  2)



 OUTPUT CONTROL FOR STRESS PERIOD    1   TIME STEP   1
    SAVE BUDGET
    PRINT HEAD FOR ALL LAYERS
    PRINT BUDGET
 UBDSV1 SAVING "         STORAGE" ON UNIT  32 AT TIME STEP  1, STRESS PERIOD   1
 UBDSV2 SAVING "   CONSTANT HEAD" ON UNIT  32 AT TIME STEP  1, STRESS PERIOD   1
 UBDSV1 SAVING "FLOW RIGHT FACE " ON UNIT  32 AT TIME STEP  1, STRESS PERIOD   1
 UBDSV1 SAVING "FLOW FRONT FACE " ON UNIT  32 AT TIME STEP  1, STRESS PERIOD   1
 UBDSV1 SAVING "FLOW LOWER FACE " ON UNIT  32 AT TIME STEP  1, STRESS PERIOD   1
 UBDSV3 SAVING "        RECHARGE" ON UNIT  32 AT TIME STEP  1, STRESS PERIOD   1
1
              HEAD IN LAYER   1 AT END OF TIME STEP   1 IN STRESS PERIOD    1
  ---------------------------------------------------------------------------

            1           2           3           4           5           6           7           8           9          10
           11          12          13          14          15          16          17          18          19          20
           21          22          23          24          25          26          27          28          29          30
           31          32          33          34          35          36          37          38          39          40
 ........................................................................................................................
   1   -99.90      -99.90      -99.90      -99.90      -99.90      -99.90      -99.90      -99.90      -99.90      -99.90    
       -99.90      -99.90      -99.90      -99.90      -99.90      -99.90      -99.90      -99.90      -99.90      -99.90    
       -99.90      -99.90      -99.90      -99.90      -99.90      -99.90      -99.90      -99.90      -99.90      -99.90    
       -99.90      -99.90      -99.90      -99.90      -99.90      -99.90      -99.90      -99.90      -99.90      -99.90    
   2   -99.90      -99.90      -99.90      -99.90      -99.90      -99.90      -99.90      -99.90      -99.90      -99.90    
       -99.90      -99.90      -99.90      -99.90      -99.90      -99.90      -99.90      -99.90      -99.90      -99.90    
       -99.90      -99.90      -99.90      -99.90      -99.90      -99.90      -99.90      -99.90      -99.90      -99.90    
       -99.90      -99.90      -99.90      -99.90      -99.90      -99.90      -99.90      -99.90      -99.90      -99.90    
   3   -99.90      -99.90      -99.90      -99.90      -99.90      -99.90      -99.90      -99.90      -99.90      -99.90    
       -99.90      -99.90      -99.90      -99.90      -99.90      -99.90      -99.90      -99.90      -99.90      -99.90    
       -99.90      -99.90      -99.90      -99.90      -99.90      -99.90      -99.90      -99.90      -99.90      -99.90    
       -99.90      -99.90      -99.90      -99.90      -99.90      -99.90      -99.90      -99.90      -99.90      -99.90    
   4   -99.90      -99.90      -99.90      -99.90      -99.90      -99.90      -99.90      -99.90      -99.90      -99.90    
       -99.90      -99.90      -99.90      -99.90      -99.90      -99.90      -99.90      -99.90      -99.90      -99.90    
       -99.90      -99.90      -99.90      -99.90      -99.90      -99.90      -99.90      -99.90      -99.90      -99.90    
       -99.90      -99.90      -99.90      -99.90      -99.90      -99.90      -99.90      -99.90      -99.90      -99.90    
   5   -99.90      -99.90      -99.90      -99.90      -99.90      -99.90      -99.90      -99.90      -99.90      -99.90    
       -99.90      -99.90      -99.90      -99.90      -99.90      -99.90      -99.90      -99.90      -99.90      -99.90    
       -99.90      -99.90      -99.90      -99.90      -99.90      -99.90      -99.90      -99.90      -99.90      -99.90    
       -99.90      -99.90      -99.90      -99.90      -99.90      -99.90      -99.90      -99.90      -99.90      -99.90    
   6   -99.90      -99.90      -99.90      -99.90      -99.90      -99.90      -99.90      -99.90      -99.90      -99.90    
       -99.90      -99.90      -99.90      -99.90      -99.90      -99.90      -99.90      -99.90      -99.90      -99.90    
       -99.90      -99.90      -99.90      -99.90      -99.90      -99.90      -99.90      -99.90      -99.90      -99.90    
       -99.90      -99.90      -99.90      -99.90      -99.90      -99.90      -99.90      -99.90      -99.90      -99.90    
   7   -99.90      -99.90      -99.90      -99.90      -99.90      -99.90      -99.90      -99.90      -99.90      -99.90    
       -99.90      -99.90      -99.90      -99.90      -99.90      -99.90      -99.90      -99.90      -99.90      -99.90    
       -99.90      -99.90      -99.90      -99.90      -99.90      -99.90      -99.90      -99.90      -99.90      -99.90    
       -99.90      -99.90      -99.90      -99.90      -99.90      -99.90      -99.90      -99.90      -99.90      -99.90    
   8   -99.90      -99.90      -99.90      -99.90      -99.90      -99.90      -99.90      -99.90      -99.90      -99.90    
       -99.90      -99.90      -99.90      -99.90      -99.90      -99.90      -99.90      -99.90      -99.90      -99.90    
       -99.90      -99.90      -99.90      -99.90      -99.90      -99.90      -99.90      -99.90      -99.90      -99.90    
       -99.90      -99.90      -99.90      -99.90      -99.90      -99.90      -99.90      -99.90      -99.90      -99.90    
   9   -99.90      -99.90      -99.90      -99.90      -99.90      -99.90      -99.90      -99.90      -99.90      -99.90    
       -99.90      -99.90      -99.90      -99.90      -99.90      -99.90      -99.90      -99.90      -99.90      -99.90    
       -99.90      -99.90      -99.90      -99.90      -99.90      -99.90      -99.90      -99.90      -99.90      -99.90    
       -99.90      -99.90      -99.90      -99.90      -99.90      -99.90      -99.90      -99.90      -99.90      -99.90    
  10   -99.90      -99.90      -99.90      -99.90      -99.90      -99.90      -99.90      -99.90      -99.90      -99.90    
       -99.90      -99.90      -99.90      -99.90      -99.90      -99.90      -99.90      -99.90      -99.90      -99.90    
       -99.90      -99.90      -99.90      -99.90      -99.90      -99.90      -99.90      -99.90      -99.90      -99.90    
       -99.90      -99.90      -99.90      -99.90      -99.90      -99.90      -99.90      -99.90      -99.90      -99.90    
  11   -99.90      -99.90      -99.90      -99.90      -99.90      -99.90      -99.90      -99.90      -99.90      -99.90    
       -99.90      -99.90      -99.90      -99.90      -99.90      -99.90      -99.90      -99.90      -99.90      -99.90    
       -99.90      -99.90      -99.90      -99.90      -99.90      -99.90      -99.90      -99.90      -99.90      -99.90    
       -99.90      -99.90      -99.90      -99.90      -99.90      -99.90      -99.90      -99.90      -99.90      -99.90    
  12   -99.90      -99.90      -99.90      -99.90      -99.90      -99.90      -99.90      -99.90      -99.90      -99.90    
       -99.90      -99.90      -99.90      -99.90      -99.90      -99.90      -99.90      -99.90      -99.90      -99.90    
       -99.90      -99.90      -99.90      -99.90      -99.90      -99.90      -99.90      -99.90      -99.90      -99.90    
       -99.90      -99.90      -99.90      -99.90      -99.90      -99.90      -99.90      -99.90      -99.90      -99.90    
  13   -99.90      -99.90      -99.90      -99.90      -99.90      -99.90      -99.90      -99.90      -99.90      -99.90    
       -99.90      -99.90      -99.90      -99.90      -99.90      -99.90      -99.90      -99.90      -99.90      -99.90    
       -99.90      -99.90      -99.90      -99.90      -99.90      -99.90      -99.90      -99.90      -99.90      -99.90    
       -99.90      -99.90      -99.90      -99.90      -99.90      -99.90      -99.90      -99.90      -99.90      -99.90    
  14   -99.90      -99.90      -99.90      -99.90      -99.90      -99.90      -99.90      -99.90      -99.90      -99.90    
       -99.90      -99.90      -99.90      -99.90      -99.90      -99.90      -99.90      -99.90      -99.90      -99.90    
       -99.90      -99.90      -99.90      -99.90      -99.90      -99.90      -99.90      -99.90      -99.90      -99.90    
       -99.90      -99.90      -99.90      -99.90      -99.90      -99.90      -99.90      -99.90      -99.90      -99.90    
  15   -99.90      -99.90      -99.90      -99.90      -99.90      -99.90      -99.90      -99.90      -99.90      -99.90    
       -99.90      -99.90      -99.90      -99.90      -99.90      -99.90      -99.90      -99.90      -99.90      -99.90    
       -99.90      -99.90      -99.90      -99.90      -99.90      -99.90      -99.90      -99.90      -99.90      -99.90    
       -99.90      -99.90      -99.90      -99.90      -99.90      -99.90      -99.90      -99.90      -99.90      -99.90    
  16   -99.90      -99.90      -99.90      -99.90      -99.90      -99.90      -99.90      -99.90      -99.90      -99.90    
       -99.90      -99.90      -99.90      -99.90      -99.90      -99.90      -99.90      -99.90      -99.90      -99.90    
       -99.90      -99.90      -99.90      -99.90      -99.90      -99.90      -99.90      -99.90      -99.90      -99.90    
       -99.90      -99.90      -99.90      -99.90      -99.90      -99.90      -99.90      -99.90      -99.90      -99.90    
  17   -99.90      -99.90      -99.90      -99.90      -99.90      -99.90      -99.90      -99.90      -99.90      -99.90    
       -99.90      -99.90      -99.90      -99.90      -99.90      -99.90      -99.90      -99.90      -99.90      -99.90    
       -99.90      -99.90      -99.90      -99.90      -99.90      -99.90      -99.90      -99.90      -99.90      -99.90    
       -99.90      -99.90      -99.90      -99.90      -99.90      -99.90      -99.90      -99.90      -99.90      -99.90    
  18   -99.90      -99.90      -99.90      -99.90      -99.90      -99.90      -99.90      -99.90      -99.90      -99.90    
       -99.90      -99.90      -99.90      -99.90      -99.90      -99.90      -99.90      -99.90      -99.90      -99.90    
       -99.90      -99.90      -99.90      -99.90      -99.90      -99.90      -99.90      -99.90      -99.90      -99.90    
       -99.90      -99.90      -99.90      -99.90      -99.90      -99.90      -99.90      -99.90      -99.90      -99.90    
  19   -99.90      -99.90      -99.90      -99.90      -99.90      -99.90      -99.90      -99.90      -99.90      -99.90    
       -99.90      -99.90      -99.90      -99.90      -99.90      -99.90      -99.90      -99.90      -99.90      -99.90    
       -99.90      -99.90      -99.90      -99.90      -99.90      -99.90      -99.90      -99.90      -99.90      -99.90    
       -99.90      -99.90      -99.90      -99.90      -99.90      -99.90      -99.90      -99.90      -99.90      -99.90    
  20   -99.90      -99.90      -99.90      -99.90      -99.90      -99.90      -99.90      -99.90      -99.90      -99.90    
       -99.90      -99.90      -99.90      -99.90      -99.90      -99.90      -99.90      -99.90      -99.90      -99.90    
       -99.90      -99.90      -99.90      -99.90      -99.90      -99.90      -99.90      -99.90      -99.90      -99.90    
       -99.90      -99.90      -99.90      -99.90      -99.90      -99.90      -99.90      -99.90      -99.90      -99.90    
  21   -99.90      -99.90      -99.90      -99.90      -99.90      -99.90      -99.90      -99.90      -99.90      -99.90    
       -99.90      -99.90      -99.90      -99.90      -99.90      -99.90      -99.90      -99.90      -99.90      -99.90    
       -99.90      -99.90      -99.90      -99.90      -99.90      -99.90      -99.90      -99.90      -99.90      -99.90    
       -99.90      -99.90      -99.90      -99.90      -99.90      -99.90      -99.90      -99.90      -99.90      -99.90    
  22   -99.90      -99.90      -99.90      -99.90      -99.90      -99.90      -99.90      -99.90      -99.90      -99.90    
       -99.90      -99.90      -99.90      -99.90      -99.90      -99.90      -99.90      -99.90      -99.90      -99.90    
       -99.90      -99.90      -99.90      -99.90      -99.90      -99.90      -99.90      -99.90      -99.90      -99.90    
       -99.90      -99.90      -99.90      -99.90      -99.90      -99.90      -99.90      -99.90      -99.90      -99.90    
  23   -99.90      -99.90      -99.90      -99.90      -99.90      -99.90      -99.90      -99.90      -99.90      -99.90    
       -99.90      -99.90      -99.90      -99.90      -99.90      -99.90      -99.90      -99.90      -99.90      -99.90    
       -99.90      -99.90      -99.90      -99.90      -99.90      -99.90      -99.90      -99.90      -99.90      -99.90    
       -99.90      -99.90      -99.90      -99.90      -99.90      -99.90      -99.90      -99.90      -99.90      -99.90    
  24   -99.90      -99.90      -99.90      -99.90      -99.90      -99.90      -99.90      -99.90      -99.90      -99.90    
       -99.90      -99.90      -99.90      -99.90      -99.90      -99.90      -99.90      -99.90      -99.90      -99.90    
       -99.90      -99.90      -99.90      -99.90      -99.90      -99.90      -99.90      -99.90      -99.90      -99.90    
       -99.90      -99.90      -99.90      -99.90      -99.90      -99.90      -99.90      -99.90      -99.90      -99.90    
  25   -99.90      -99.90      -99.90      -99.90      -99.90      -99.90      -99.90      -99.90      -99.90      -99.90    
       -99.90      -99.90      -99.90      -99.90      -99.90      -99.90      -99.90      -99.90      -99.90      -99.90    
       -99.90      -99.90      -99.90      -99.90      -99.90      -99.90      -99.90      -99.90      -99.90      -99.90    
       -99.90      -99.90      -99.90      -99.90      -99.90      -99.90      -99.90      -99.90      -99.90      -99.90    
  26   -99.90      -99.90      -99.90      -99.90      -99.90      -99.90      -99.90      -99.90      -99.90      -99.90    
       -99.90      -99.90      -99.90      -99.90      -99.90      -99.90      -99.90      -99.90      -99.90      -99.90    
       -99.90      -99.90      -99.90      -99.90      -99.90      -99.90      -99.90      -99.90      -99.90      -99.90    
       -99.90      -99.90      -99.90      -99.90      -99.90      -99.90      -99.90      -99.90      -99.90      -99.90    
  27   -99.90      -99.90      -99.90      -99.90      -99.90      -99.90      -99.90      -99.90      -99.90      -99.90    
       -99.90      -99.90      -99.90      -99.90      -99.90      -99.90      -99.90      -99.90      -99.90      -99.90    
       -99.90      -99.90      -99.90      -99.90      -99.90      -99.90      -99.90      -99.90      -99.90      -99.90    
       -99.90      -99.90      -99.90      -99.90      -99.90      -99.90      -99.90      -99.90      -99.90      -99.90    
  28   -99.90      -99.90      -99.90      -99.90      -99.90      -99.90      -99.90      -99.90      -99.90      -99.90    
       -99.90      -99.90      -99.90      -99.90      -99.90      -99.90      -99.90      -99.90      -99.90      -99.90    
       -99.90      -99.90      -99.90      -99.90      -99.90      -99.90      -99.90      -99.90      -99.90      -99.90    
       -99.90      -99.90      -99.90      -99.90      -99.90      -99.90      -99.90      -99.90      -99.90      -99.90    
  29   -99.90      -99.90      -99.90      -99.90      -99.90      -99.90      -99.90      -99.90      -99.90      -99.90    
       -99.90      -99.90      -99.90      -99.90      -99.90      -99.90      -99.90      -99.90      -99.90      -99.90    
       -99.90      -99.90      -99.90      -99.90      -99.90      -99.90      -99.90      -99.90      -99.90      -99.90    
       -99.90      -99.90      -99.90      -99.90      -99.90      -99.90      -99.90      -99.90      -99.90      -99.90    
  30   -99.90      -99.90      -99.90      -99.90      -99.90      -99.90      -99.90      -99.90      -99.90      -99.90    
       -99.90      -99.90      -99.90      -99.90      -99.90      -99.90      -99.90      -99.90      -99.90      -99.90    
       -99.90      -99.90      -99.90      -99.90      -99.90      -99.90      -99.90      -99.90      -99.90      -99.90    
       -99.90      -99.90      -99.90      -99.90      -99.90      -99.90      -99.90      -99.90      -99.90      -99.90    
  31   -99.90      -99.90      -99.90      -99.90      -99.90      -99.90      -99.90      -99.90      -99.90      -99.90    
       -99.90      -99.90      -99.90      -99.90      -99.90      -99.90      -99.90      -99.90      -99.90      -99.90    
       -99.90      -99.90      -99.90      -99.90      -99.90      -99.90      -99.90      -99.90      -99.90      -99.90    
       -99.90      -99.90      -99.90      -99.90      -99.90      -99.90      -99.90      -99.90      -99.90      -99.90    
  32   -99.90      -99.90      -99.90      -99.90      -99.90      -99.90      -99.90      -99.90      -99.90      -99.90    
       -99.90      -99.90      -99.90      -99.90      -99.90      -99.90      -99.90      -99.90      -99.90      -99.90    
       -99.90      -99.90      -99.90      -99.90      -99.90      -99.90      -99.90      -99.90      -99.90      -99.90    
       -99.90      -99.90      -99.90      -99.90      -99.90      -99.90      -99.90      -99.90      -99.90      -99.90    
  33   -99.90      -99.90      -99.90      -99.90      -99.90      -99.90      -99.90      -99.90      -99.90      -99.90    
       -99.90      -99.90      -99.90      -99.90      -99.90      -99.90      -99.90      -99.90      -99.90      -99.90    
       -99.90      -99.90      -99.90      -99.90      -99.90      -99.90      -99.90      -99.90      -99.90      -99.90    
       -99.90      -99.90      -99.90      -99.90      -99.90      -99.90      -99.90      -99.90      -99.90      -99.90    
  34   -99.90      -99.90      -99.90      -99.90      -99.90      -99.90      -99.90      -99.90      -99.90      -99.90    
       -99.90      -99.90      -99.90      -99.90      -99.90      -99.90      -99.90      -99.90      -99.90      -99.90    
       -99.90      -99.90      -99.90      -99.90      -99.90      -99.90      -99.90      -99.90      -99.90      -99.90    
       -99.90      -99.90      -99.90      -99.90      -99.90      -99.90      -99.90      -99.90      -99.90      -99.90    
  35   -99.90      -99.90      -99.90      -99.90      -99.90      -99.90      -99.90      -99.90      -99.90      -99.90    
       -99.90      -99.90      -99.90      -99.90      -99.90      -99.90      -99.90      -99.90      -99.90      -99.90    
       -99.90      -99.90      -99.90      -99.90      -99.90      -99.90      -99.90      -99.90      -99.90      -99.90    
       -99.90      -99.90      -99.90      -99.90      -99.90      -99.90      -99.90      -99.90      -99.90      -99.90    
  36   -99.90      -99.90      -99.90      -99.90      -99.90      -99.90      -99.90      -99.90      -99.90      -99.90    
       -99.90      -99.90      -99.90      -99.90      -99.90      -99.90      -99.90      -99.90      -99.90      -99.90    
       -99.90      -99.90      -99.90      -99.90      -99.90      -99.90      -99.90      -99.90      -99.90      -99.90    
       -99.90      -99.90      -99.90      -99.90      -99.90      -99.90      -99.90      -99.90      -99.90      -99.90    
  37   -99.90      -99.90      -99.90      -99.90      -99.90      -99.90      -99.90      -99.90      -99.90      -99.90    
       -99.90      -99.90      -99.90      -99.90      -99.90      -99.90      -99.90      -99.90      -99.90      -99.90    
       -99.90      -99.90      -99.90      -99.90      -99.90      -99.90      -99.90      -99.90      -99.90      -99.90    
       -99.90      -99.90      -99.90      -99.90      -99.90      -99.90      -99.90      -99.90      -99.90      -99.90    
  38   -99.90      -99.90      -99.90      -99.90      -99.90      -99.90      -99.90      -99.90      -99.90      -99.90    
       -99.90      -99.90      -99.90      -99.90      -99.90      -99.90      -99.90      -99.90      -99.90      -99.90    
       -99.90      -99.90      -99.90      -99.90      -99.90      -99.90      -99.90      -99.90      -99.90      -99.90    
       -99.90      -99.90      -99.90      -99.90      -99.90      -99.90      -99.90      -99.90      -99.90      -99.90    
  39   -99.90      -99.90      -99.90      -99.90      -99.90      -99.90      -99.90      -99.90      -99.90      -99.90    
       -99.90      -99.90      -99.90      -99.90      -99.90      -99.90      -99.90      -99.90      -99.90      -99.90    
       -99.90      -99.90      -99.90      -99.90      -99.90      -99.90      -99.90      -99.90      -99.90      -99.90    
       -99.90      -99.90      -99.90      -99.90      -99.90      -99.90      -99.90      -99.90      -99.90      -99.90    
  40   -99.90      -99.90      -99.90      -99.90      -99.90      -99.90      -99.90      -99.90      -99.90      -99.90    
       -99.90      -99.90      -99.90      -99.90      -99.90      -99.90      -99.90      -99.90      -99.90      -99.90    
       -99.90      -99.90      -99.90      -99.90      -99.90      -99.90      -99.90      -99.90      -99.90      -99.90    
       -99.90      -99.90      -99.90      -99.90      -99.90      -99.90      -99.90      -99.90      -99.90      -99.90    
1
              HEAD IN LAYER   2 AT END OF TIME STEP   1 IN STRESS PERIOD    1
  ---------------------------------------------------------------------------

            1           2           3           4           5           6           7           8           9          10
           11          12          13          14          15          16          17          18          19          20
           21          22          23          24          25          26          27          28          29          30
           31          32          33          34          35          36          37          38          39          40
 ........................................................................................................................
   1   -99.90      -99.90      -99.90      -99.90      -99.90      -99.90      -99.90      -99.90      -99.90      -99.90    
       -99.90      -99.90      -99.90      -99.90      -99.90      -99.90      -99.90      -99.90      -99.90      -99.90    
       -99.90      -99.90      -99.90      -99.90      -99.90      -99.90      -99.90      -99.90      -99.90      -99.90    
       -99.90      -99.90      -99.90      -99.90      -99.90      -99.90      -99.90      -99.90      -99.90      -99.90    
   2   -99.90      -99.90      -99.90      -99.90      -99.90      -99.90      -99.90      -99.90      -99.90      -99.90    
       -99.90      -99.90      -99.90      -99.90      -99.90      -99.90      -99.90      -99.90      -99.90      -99.90    
       -99.90      -99.90      -99.90      -99.90      -99.90      -99.90      -99.90      -99.90      -99.90      -99.90    
       -99.90      -99.90      -99.90      -99.90      -99.90      -99.90      -99.90      -99.90      -99.90      -99.90    
   3   -99.90      -99.90      -99.90      -99.90      -99.90      -99.90      -99.90      -99.90      -99.90      -99.90    
       -99.90      -99.90      -99.90      -99.90      -99.90      -99.90      -99.90      -99.90      -99.90      -99.90    
       -99.90      -99.90      -99.90      -99.90      -99.90      -99.90      -99.90      -99.90      -99.90      -99.90    
       -99.90      -99.90      -99.90      -99.90      -99.90      -99.90      -99.90      -99.90      -99.90      -99.90    
   4   -99.90      -99.90      -99.90      -99.90      -99.90      -99.90      -99.90      -99.90      -99.90      -99.90    
       -99.90      -99.90      -99.90      -99.90      -99.90      -99.90      -99.90      -99.90      -99.90      -99.90    
       -99.90      -99.90      -99.90      -99.90      -99.90      -99.90      -99.90      -99.90      -99.90      -99.90    
       -99.90      -99.90      -99.90      -99.90      -99.90      -99.90      -99.90      -99.90      -99.90      -99.90    
   5   -99.90      -99.90      -99.90      -99.90      -99.90      -99.90      -99.90      -99.90      -99.90      -99.90    
       -99.90      -99.90      -99.90      -99.90      -99.90      -99.90      -99.90      -99.90      -99.90      -99.90    
       -99.90      -99.90      -99.90      -99.90      -99.90      -99.90      -99.90      -99.90      -99.90      -99.90    
       -99.90      -99.90      -99.90      -99.90      -99.90      -99.90      -99.90      -99.90      -99.90      -99.90    
   6   -99.90      -99.90      -99.90      -99.90      -99.90      -99.90      -99.90      -99.90      -99.90      -99.90    
       -99.90      -99.90      -99.90      -99.90      -99.90      -99.90      -99.90      -99.90      -99.90      -99.90    
       -99.90      -99.90      -99.90      -99.90      -99.90      -99.90      -99.90      -99.90      -99.90      -99.90    
       -99.90      -99.90      -99.90      -99.90      -99.90      -99.90      -99.90      -99.90      -99.90      -99.90    
   7   -99.90      -99.90      -99.90      -99.90      -99.90      -99.90      -99.90      -99.90      -99.90      -99.90    
       -99.90      -99.90      -99.90      -99.90      -99.90      -99.90      -99.90      -99.90      -99.90      -99.90    
       -99.90      -99.90      -99.90      -99.90      -99.90      -99.90      -99.90      -99.90      -99.90      -99.90    
       -99.90      -99.90      -99.90      -99.90      -99.90      -99.90      -99.90      -99.90      -99.90      -99.90    
   8   -99.90      -99.90      -99.90      -99.90      -99.90      -99.90      -99.90      -99.90      -99.90      -99.90    
       -99.90      -99.90      -99.90      -99.90      -99.90      -99.90      -99.90      -99.90      -99.90      -99.90    
       -99.90      -99.90      -99.90      -99.90      -99.90      -99.90      -99.90      -99.90      -99.90      -99.90    
       -99.90      -99.90      -99.90      -99.90      -99.90      -99.90      -99.90      -99.90      -99.90      -99.90    
   9   -99.90      -99.90      -99.90      -99.90      -99.90      -99.90      -99.90      -99.90      -99.90      -99.90    
       -99.90      -99.90      -99.90      -99.90      -99.90      -99.90      -99.90      -99.90      -99.90      -99.90    
       -99.90      -99.90      -99.90      -99.90      -99.90      -99.90      -99.90      -99.90      -99.90      -99.90    
       -99.90      -99.90      -99.90      -99.90      -99.90      -99.90      -99.90      -99.90      -99.90      -99.90    
  10   -99.90      -99.90      -99.90      -99.90      -99.90      -99.90      -99.90      -99.90      -99.90      -99.90    
       -99.90      -99.90      -99.90      -99.90      -99.90      -99.90      -99.90      -99.90      -99.90      -99.90    
       -99.90      -99.90      -99.90      -99.90      -99.90      -99.90      -99.90      -99.90      -99.90      -99.90    
       -99.90      -99.90      -99.90      -99.90      -99.90      -99.90      -99.90      -99.90      -99.90      -99.90    
  11   -99.90      -99.90      -99.90      -99.90      -99.90      -99.90      -99.90      -99.90      -99.90      -99.90    
       -99.90      -99.90      -99.90      -99.90      -99.90      -99.90      -99.90      -99.90      -99.90      -99.90    
       -99.90      -99.90      -99.90      -99.90      -99.90      -99.90      -99.90      -99.90      -99.90      -99.90    
       -99.90      -99.90      -99.90      -99.90      -99.90      -99.90      -99.90      -99.90      -99.90      -99.90    
  12   -99.90      -99.90      -99.90      -99.90      -99.90      -99.90      -99.90      -99.90      -99.90      -99.90    
       -99.90      -99.90      -99.90      -99.90      -99.90      -99.90      -99.90      -99.90      -99.90      -99.90    
       -99.90      -99.90      -99.90      -99.90      -99.90      -99.90      -99.90      -99.90      -99.90      -99.90    
       -99.90      -99.90      -99.90      -99.90      -99.90      -99.90      -99.90      -99.90      -99.90      -99.90    
  13   -99.90      -99.90      -99.90      -99.90      -99.90      -99.90      -99.90      -99.90      -99.90      -99.90    
       -99.90      -99.90      -99.90      -99.90      -99.90      -99.90      -99.90      -99.90      -99.90      -99.90    
       -99.90      -99.90      -99.90      -99.90      -99.90      -99.90      -99.90      -99.90      -99.90      -99.90    
       -99.90      -99.90      -99.90      -99.90      -99.90      -99.90      -99.90      -99.90      -99.90      -99.90    
  14   -99.90      -99.90      -99.90      -99.90      -99.90      -99.90      -99.90      -99.90      -99.90      -99.90    
       -99.90      -99.90      -99.90      -99.90      -99.90      -99.90      -99.90      -99.90      -99.90      -99.90    
       -99.90      -99.90      -99.90      -99.90      -99.90      -99.90      -99.90      -99.90      -99.90      -99.90    
       -99.90      -99.90      -99.90      -99.90      -99.90      -99.90      -99.90      -99.90      -99.90      -99.90    
  15   -99.90      -99.90      -99.90      -99.90      -99.90      -99.90      -99.90      -99.90      -99.90      -99.90    
       -99.90      -99.90      -99.90      -99.90      -99.90      -99.90      -99.90      -99.90      -99.90      -99.90    
       -99.90      -99.90      -99.90      -99.90      -99.90      -99.90      -99.90      -99.90      -99.90      -99.90    
       -99.90      -99.90      -99.90      -99.90      -99.90      -99.90      -99.90      -99.90      -99.90      -99.90    
  16   -99.90      -99.90      -99.90      -99.90      -99.90      -99.90      -99.90      -99.90      -99.90      -99.90    
       -99.90      -99.90      -99.90      -99.90      -99.90      -99.90      -99.90      -99.90      -99.90      -99.90    
       -99.90      -99.90      -99.90      -99.90      -99.90      -99.90      -99.90      -99.90      -99.90      -99.90    
       -99.90      -99.90      -99.90      -99.90      -99.90      -99.90      -99.90      -99.90      -99.90      -99.90    
  17   -99.90      -99.90      -99.90      -99.90      -99.90      -99.90      -99.90      -99.90      -99.90      -99.90    
       -99.90      -99.90      -99.90      -99.90      -99.90      -99.90      -99.90      -99.90      -99.90      -99.90    
       -99.90      -99.90      -99.90      -99.90      -99.90      -99.90      -99.90      -99.90      -99.90      -99.90    
       -99.90      -99.90      -99.90      -99.90      -99.90      -99.90      -99.90      -99.90      -99.90      -99.90    
  18   -99.90      -99.90      -99.90      -99.90      -99.90      -99.90      -99.90      -99.90      -99.90      -99.90    
       -99.90      -99.90      -99.90      -99.90      -99.90      -99.90      -99.90      -99.90      -99.90      -99.90    
       -99.90      -99.90      -99.90      -99.90      -99.90      -99.90      -99.90      -99.90      -99.90      -99.90    
       -99.90      -99.90      -99.90      -99.90      -99.90      -99.90      -99.90      -99.90      -99.90      -99.90    
  19   -99.90      -99.90      -99.90      -99.90      -99.90      -99.90      -99.90      -99.90      -99.90      -99.90    
       -99.90      -99.90      -99.90      -99.90      -99.90      -99.90      -99.90      -99.90      -99.90      -99.90    
       -99.90      -99.90      -99.90      -99.90      -99.90      -99.90      -99.90      -99.90      -99.90      -99.90    
       -99.90      -99.90      -99.90      -99.90      -99.90      -99.90      -99.90      -99.90      -99.90      -99.90    
  20   -99.90      -99.90      -99.90      -99.90      -99.90      -99.90      -99.90      -99.90      -99.90      -99.90    
       -99.90      -99.90      -99.90      -99.90      -99.90      -99.90      -99.90      -99.90      -99.90      -99.90    
       -99.90      -99.90      -99.90      -99.90      -99.90      -99.90      -99.90      -99.90      -99.90      -99.90    
       -99.90      -99.90      -99.90      -99.90      -99.90      -99.90      -99.90      -99.90      -99.90      -99.90    
  21   -99.90      -99.90      -99.90      -99.90      -99.90      -99.90      -99.90      -99.90      -99.90      -99.90    
       -99.90      -99.90      -99.90      -99.90      -99.90      -99.90      -99.90      -99.90      -99.90      -99.90    
       -99.90      -99.90      -99.90      -99.90      -99.90      -99.90      -99.90      -99.90      -99.90      -99.90    
       -99.90      -99.90      -99.90      -99.90      -99.90      -99.90      -99.90      -99.90      -99.90      -99.90    
  22   -99.90      -99.90      -99.90      -99.90      -99.90      -99.90      -99.90      -99.90      -99.90      -99.90    
       -99.90      -99.90      -99.90      -99.90      -99.90      -99.90      -99.90      -99.90      -99.90      -99.90    
       -99.90      -99.90      -99.90      -99.90      -99.90      -99.90      -99.90      -99.90      -99.90      -99.90    
       -99.90      -99.90      -99.90      -99.90      -99.90      -99.90      -99.90      -99.90      -99.90      -99.90    
  23   -99.90      -99.90      -99.90      -99.90      -99.90      -99.90      -99.90      -99.90      -99.90      -99.90    
       -99.90      -99.90      -99.90      -99.90      -99.90      -99.90      -99.90      -99.90      -99.90      -99.90    
       -99.90      -99.90      -99.90      -99.90      -99.90      -99.90      -99.90      -99.90      -99.90      -99.90    
       -99.90      -99.90      -99.90      -99.90      -99.90      -99.90      -99.90      -99.90      -99.90      -99.90    
  24   -99.90      -99.90      -99.90      -99.90      -99.90      -99.90      -99.90      -99.90      -99.90      -99.90    
       -99.90      -99.90      -99.90      -99.90      -99.90      -99.90      -99.90      -99.90      -99.90      -99.90    
       -99.90      -99.90      -99.90      -99.90      -99.90      -99.90      -99.90      -99.90      -99.90      -99.90    
       -99.90      -99.90      -99.90      -99.90      -99.90      -99.90      -99.90      -99.90      -99.90      -99.90    
  25   -99.90      -99.90      -99.90      -99.90      -99.90      -99.90      -99.90      -99.90      -99.90      -99.90    
       -99.90      -99.90      -99.90      -99.90      -99.90      -99.90      -99.90      -99.90      -99.90      -99.90    
       -99.90      -99.90      -99.90      -99.90      -99.90      -99.90      -99.90      -99.90      -99.90      -99.90    
       -99.90      -99.90      -99.90      -99.90      -99.90      -99.90      -99.90      -99.90      -99.90      -99.90    
  26   -99.90      -99.90      -99.90      -99.90      -99.90      -99.90      -99.90      -99.90      -99.90      -99.90    
       -99.90      -99.90      -99.90      -99.90      -99.90      -99.90      -99.90      -99.90      -99.90      -99.90    
       -99.90      -99.90      -99.90      -99.90      -99.90      -99.90      -99.90      -99.90      -99.90      -99.90    
       -99.90      -99.90      -99.90      -99.90      -99.90      -99.90      -99.90      -99.90      -99.90      -99.90    
  27   -99.90      -99.90      -99.90      -99.90      -99.90      -99.90      -99.90      -99.90      -99.90      -99.90    
       -99.90      -99.90      -99.90      -99.90      -99.90      -99.90      -99.90      -99.90      -99.90      -99.90    
       -99.90      -99.90      -99.90      -99.90      -99.90      -99.90      -99.90      -99.90      -99.90      -99.90    
       -99.90      -99.90      -99.90      -99.90      -99.90      -99.90      -99.90      -99.90      -99.90      -99.90    
  28   -99.90      -99.90      -99.90      -99.90      -99.90      -99.90      -99.90      -99.90      -99.90      -99.90    
       -99.90      -99.90      -99.90      -99.90      -99.90      -99.90      -99.90      -99.90      -99.90      -99.90    
       -99.90      -99.90      -99.90      -99.90      -99.90      -99.90      -99.90      -99.90      -99.90      -99.90    
       -99.90      -99.90      -99.90      -99.90      -99.90      -99.90      -99.90      -99.90      -99.90      -99.90    
  29   -99.90      -99.90      -99.90      -99.90      -99.90      -99.90      -99.90      -99.90      -99.90      -99.90    
       -99.90      -99.90      -99.90      -99.90      -99.90      -99.90      -99.90      -99.90      -99.90      -99.90    
       -99.90      -99.90      -99.90      -99.90      -99.90      -99.90      -99.90      -99.90      -99.90      -99.90    
       -99.90      -99.90      -99.90      -99.90      -99.90      -99.90      -99.90      -99.90      -99.90      -99.90    
  30   -99.90      -99.90      -99.90      -99.90      -99.90      -99.90      -99.90      -99.90      -99.90      -99.90    
       -99.90      -99.90      -99.90      -99.90      -99.90      -99.90      -99.90      -99.90      -99.90      -99.90    
       -99.90      -99.90      -99.90      -99.90      -99.90      -99.90      -99.90      -99.90      -99.90      -99.90    
       -99.90      -99.90      -99.90      -99.90      -99.90      -99.90      -99.90      -99.90      -99.90      -99.90    
  31   -99.90      -99.90      -99.90      -99.90      -99.90      -99.90      -99.90      -99.90      -99.90      -99.90    
       -99.90      -99.90      -99.90      -99.90      -99.90      -99.90      -99.90      -99.90      -99.90      -99.90    
       -99.90      -99.90      -99.90      -99.90      -99.90      -99.90      -99.90      -99.90      -99.90      -99.90    
       -99.90      -99.90      -99.90      -99.90      -99.90      -99.90      -99.90      -99.90      -99.90      -99.90    
  32   -99.90      -99.90      -99.90      -99.90      -99.90      -99.90      -99.90      -99.90      -99.90      -99.90    
       -99.90      -99.90      -99.90      -99.90      -99.90      -99.90      -99.90      -99.90      -99.90      -99.90    
       -99.90      -99.90      -99.90      -99.90      -99.90      -99.90      -99.90      -99.90      -99.90      -99.90    
       -99.90      -99.90      -99.90      -99.90      -99.90      -99.90      -99.90      -99.90      -99.90      -99.90    
  33   -99.90      -99.90      -99.90      -99.90      -99.90      -99.90      -99.90      -99.90      -99.90      -99.90    
       -99.90      -99.90      -99.90      -99.90      -99.90      -99.90      -99.90      -99.90      -99.90      -99.90    
       -99.90      -99.90      -99.90      -99.90      -99.90      -99.90      -99.90      -99.90      -99.90      -99.90    
       -99.90      -99.90      -99.90      -99.90      -99.90      -99.90      -99.90      -99.90      -99.90      -99.90    
  34   -99.90      -99.90      -99.90      -99.90      -99.90      -99.90      -99.90      -99.90      -99.90      -99.90    
       -99.90      -99.90      -99.90      -99.90      -99.90      -99.90      -99.90      -99.90      -99.90      -99.90    
       -99.90      -99.90      -99.90      -99.90      -99.90      -99.90      -99.90      -99.90      -99.90      -99.90    
       -99.90      -99.90      -99.90      -99.90      -99.90      -99.90      -99.90      -99.90      -99.90      -99.90    
  35   -99.90      -99.90      -99.90      -99.90      -99.90      -99.90      -99.90      -99.90      -99.90      -99.90    
       -99.90      -99.90      -99.90      -99.90      -99.90      -99.90      -99.90      -99.90      -99.90      -99.90    
       -99.90      -99.90      -99.90      -99.90      -99.90      -99.90      -99.90      -99.90      -99.90      -99.90    
       -99.90      -99.90      -99.90      -99.90      -99.90      -99.90      -99.90      -99.90      -99.90      -99.90    
  36   -99.90      -99.90      -99.90      -99.90      -99.90      -99.90      -99.90      -99.90      -99.90      -99.90    
       -99.90      -99.90      -99.90      -99.90      -99.90      -99.90      -99.90      -99.90      -99.90      -99.90    
       -99.90      -99.90      -99.90      -99.90      -99.90      -99.90      -99.90      -99.90      -99.90      -99.90    
       -99.90      -99.90      -99.90      -99.90      -99.90      -99.90      -99.90      -99.90      -99.90      -99.90    
  37   -99.90      -99.90      -99.90      -99.90      -99.90      -99.90      -99.90      -99.90      -99.90      -99.90    
       -99.90      -99.90      -99.90      -99.90      -99.90      -99.90      -99.90      -99.90      -99.90      -99.90    
       -99.90      -99.90      -99.90      -99.90      -99.90      -99.90      -99.90      -99.90      -99.90      -99.90    
       -99.90      -99.90      -99.90      -99.90      -99.90      -99.90      -99.90      -99.90      -99.90      -99.90    
  38   -99.90      -99.90      -99.90      -99.90      -99.90      -99.90      -99.90      -99.90      -99.90      -99.90    
       -99.90      -99.90      -99.90      -99.90      -99.90      -99.90      -99.90      -99.90      -99.90      -99.90    
       -99.90      -99.90      -99.90      -99.90      -99.90      -99.90      -99.90      -99.90      -99.90      -99.90    
       -99.90      -99.90      -99.90      -99.90      -99.90      -99.90      -99.90      -99.90      -99.90      -99.90    
  39   -99.90      -99.90      -99.90      -99.90      -99.90      -99.90      -99.90      -99.90      -99.90      -99.90    
       -99.90      -99.90      -99.90      -99.90      -99.90      -99.90      -99.90      -99.90      -99.90      -99.90    
       -99.90      -99.90      -99.90      -99.90      -99.90      -99.90      -99.90      -99.90      -99.90      -99.90    
       -99.90      -99.90      -99.90      -99.90      -99.90      -99.90      -99.90      -99.90      -99.90      -99.90    
  40   -99.90      -99.90      -99.90      -99.90      -99.90      -99.90      -99.90      -99.90      -99.90      -99.90    
       -99.90      -99.90      -99.90      -99.90      -99.90      -99.90      -99.90      -99.90      -99.90      -99.90    
       -99.90      -99.90      -99.90      -99.90      -99.90      -99.90      -99.90      -99.90      -99.90      -99.90    
       -99.90      -99.90      -99.90      -99.90      -99.90      -99.90      -99.90      -99.90      -99.90      -99.90    
1
              HEAD IN LAYER   3 AT END OF TIME STEP   1 IN STRESS PERIOD    1
  ---------------------------------------------------------------------------

            1           2           3           4           5           6           7           8           9          10
           11          12          13          14          15          16          17          18          19          20
           21          22          23          24          25          26          27          28          29          30
           31          32          33          34          35          36          37          38          39          40
 ........................................................................................................................
   1   -99.90      -99.90      -99.90      -99.90      -99.90      -99.90      -99.90      -99.90      -99.90      -99.90    
       -99.90      -99.90      -99.90      -99.90      -99.90      -99.90      -99.90      -99.90      -99.90      -99.90    
       -99.90      -99.90      -99.90      -99.90      -99.90      -99.90      -99.90      -99.90      -99.90      -99.90    
       -99.90      -99.90      -99.90      -99.90      -99.90      -99.90      -99.90      -99.90      -99.90      -99.90    
   2   -99.90      -99.90      -99.90      -99.90      -99.90      -99.90      -99.90      -99.90      -99.90      -99.90    
       -99.90      -99.90      -99.90      -99.90      -99.90      -99.90      -99.90      -99.90      -99.90      -99.90    
       -99.90      -99.90      -99.90      -99.90      -99.90      -99.90      -99.90      -99.90      -99.90      -99.90    
       -99.90      -99.90      -99.90      -99.90      -99.90      -99.90      -99.90      -99.90      -99.90      -99.90    
   3   -99.90      -99.90      -99.90      -99.90      -99.90      -99.90      -99.90      -99.90      -99.90      -99.90    
       -99.90      -99.90      -99.90      -99.90      -99.90      -99.90      -99.90      -99.90      -99.90      -99.90    
       -99.90      -99.90      -99.90      -99.90      -99.90      -99.90      -99.90      -99.90      -99.90      -99.90    
       -99.90      -99.90      -99.90      -99.90      -99.90      -99.90      -99.90      -99.90      -99.90      -99.90    
   4   -99.90      -99.90      -99.90      -99.90      -99.90      -99.90      -99.90      -99.90      -99.90      -99.90    
       -99.90      -99.90      -99.90      -99.90      -99.90      -99.90      -99.90      -99.90      -99.90      -99.90    
       -99.90      -99.90      -99.90      -99.90      -99.90      -99.90      -99.90      -99.90      -99.90      -99.90    
       -99.90      -99.90      -99.90      -99.90      -99.90      -99.90      -99.90      -99.90      -99.90      -99.90    
   5   -99.90      -99.90      -99.90      -99.90      -99.90      -99.90      -99.90      -99.90      -99.90      -99.90    
       -99.90      -99.90      -99.90      -99.90      -99.90      -99.90      -99.90      -99.90      -99.90      -99.90    
       -99.90      -99.90      -99.90      -99.90      -99.90      -99.90      -99.90      -99.90      -99.90      -99.90    
       -99.90      -99.90      -99.90      -99.90      -99.90      -99.90      -99.90      -99.90      -99.90      -99.90    
   6   -99.90      -99.90      -99.90      -99.90      -99.90      -99.90      -99.90      -99.90      -99.90      -99.90    
       -99.90      -99.90      -99.90      -99.90      -99.90      -99.90      -99.90      -99.90      -99.90      -99.90    
       -99.90      -99.90      -99.90      -99.90      -99.90      -99.90      -99.90      -99.90      -99.90      -99.90    
       -99.90      -99.90      -99.90      -99.90      -99.90      -99.90      -99.90      -99.90      -99.90      -99.90    
   7   -99.90      -99.90      -99.90      -99.90      -99.90      -99.90      -99.90      -99.90      -99.90      -99.90    
       -99.90      -99.90      -99.90      -99.90      -99.90      -99.90      -99.90      -99.90      -99.90      -99.90    
       -99.90      -99.90      -99.90      -99.90      -99.90      -99.90      -99.90      -99.90      -99.90      -99.90    
       -99.90      -99.90      -99.90      -99.90      -99.90      -99.90      -99.90      -99.90      -99.90      -99.90    
   8   -99.90      -99.90      -99.90      -99.90      -99.90      -99.90      -99.90      -99.90      -99.90      -99.90    
       -99.90      -99.90      -99.90      -99.90      -99.90      -99.90      -99.90      -99.90      -99.90      -99.90    
       -99.90      -99.90      -99.90      -99.90      -99.90      -99.90      -99.90      -99.90      -99.90      -99.90    
       -99.90      -99.90      -99.90      -99.90      -99.90      -99.90      -99.90      -99.90      -99.90      -99.90    
   9   -99.90      -99.90      -99.90      -99.90      -99.90      -99.90      -99.90      -99.90      -99.90      -99.90    
       -99.90      -99.90      -99.90      -99.90      -99.90      -99.90      -99.90      -99.90      -99.90      -99.90    
       -99.90      -99.90      -99.90      -99.90      -99.90      -99.90      -99.90      -99.90      -99.90      -99.90    
       -99.90      -99.90      -99.90      -99.90      -99.90      -99.90      -99.90      -99.90      -99.90      -99.90    
  10   -99.90      -99.90      -99.90      -99.90      -99.90      -99.90      -99.90      -99.90      -99.90      -99.90    
       -99.90      -99.90      -99.90      -99.90      -99.90      -99.90      -99.90      -99.90      -99.90      -99.90    
       -99.90      -99.90      -99.90      -99.90      -99.90      -99.90      -99.90      -99.90      -99.90      -99.90    
       -99.90      -99.90      -99.90      -99.90      -99.90      -99.90      -99.90      -99.90      -99.90      -99.90    
  11   -99.90      -99.90      -99.90      -99.90      -99.90      -99.90      -99.90      -99.90      -99.90      -99.90    
       -99.90      -99.90      -99.90      -99.90      -99.90      -99.90      -99.90      -99.90      -99.90      -99.90    
       -99.90      -99.90      -99.90      -99.90      -99.90      -99.90      -99.90      -99.90      -99.90      -99.90    
       -99.90      -99.90      -99.90      -99.90      -99.90      -99.90      -99.90      -99.90      -99.90      -99.90    
  12   -99.90      -99.90      -99.90      -99.90      -99.90      -99.90      -99.90      -99.90      -99.90      -99.90    
       -99.90      -99.90      -99.90      -99.90      -99.90      -99.90      -99.90      -99.90      -99.90      -99.90    
       -99.90      -99.90      -99.90      -99.90      -99.90      -99.90      -99.90      -99.90      -99.90      -99.90    
       -99.90      -99.90      -99.90      -99.90      -99.90      -99.90      -99.90      -99.90      -99.90      -99.90    
  13   -99.90      -99.90      -99.90      -99.90      -99.90      -99.90      -99.90      -99.90      -99.90      -99.90    
       -99.90      -99.90      -99.90      -99.90      -99.90      -99.90      -99.90      -99.90      -99.90      -99.90    
       -99.90      -99.90      -99.90      -99.90      -99.90      -99.90      -99.90      -99.90      -99.90      -99.90    
       -99.90      -99.90      -99.90      -99.90      -99.90      -99.90      -99.90      -99.90      -99.90      -99.90    
  14   -99.90      -99.90      -99.90      -99.90      -99.90      -99.90      -99.90      -99.90      -99.90      -99.90    
       -99.90      -99.90      -99.90      -99.90      -99.90      -99.90      -99.90      -99.90      -99.90      -99.90    
       -99.90      -99.90      -99.90      -99.90      -99.90      -99.90      -99.90      -99.90      -99.90      -99.90    
       -99.90      -99.90      -99.90      -99.90      -99.90      -99.90      -99.90      -99.90      -99.90      -99.90    
  15   -99.90      -99.90      -99.90      -99.90      -99.90      -99.90      -99.90      -99.90      -99.90      -99.90    
       -99.90      -99.90      -99.90      -99.90      -99.90      -99.90      -99.90      -99.90      -99.90      -99.90    
       -99.90      -99.90      -99.90      -99.90      -99.90      -99.90      -99.90      -99.90      -99.90      -99.90    
       -99.90      -99.90      -99.90      -99.90      -99.90      -99.90      -99.90      -99.90      -99.90      -99.90    
  16   -99.90      -99.90      -99.90      -99.90      -99.90      -99.90      -99.90      -99.90      -99.90      -99.90    
       -99.90      -99.90      -99.90      -99.90      -99.90      -99.90      -99.90      -99.90      -99.90      -99.90    
       -99.90      -99.90      -99.90      -99.90      -99.90      -99.90      -99.90      -99.90      -99.90      -99.90    
       -99.90      -99.90      -99.90      -99.90      -99.90      -99.90      -99.90      -99.90      -99.90      -99.90    
  17   -99.90      -99.90      -99.90      -99.90      -99.90      -99.90      -99.90      -99.90      -99.90      -99.90    
       -99.90      -99.90      -99.90      -99.90      -99.90      -99.90      -99.90      -99.90      -99.90      -99.90    
       -99.90      -99.90      -99.90      -99.90      -99.90      -99.90      -99.90      -99.90      -99.90      -99.90    
       -99.90      -99.90      -99.90      -99.90      -99.90      -99.90      -99.90      -99.90      -99.90      -99.90    
  18   -99.90      -99.90      -99.90      -99.90      -99.90      -99.90      -99.90      -99.90      -99.90      -99.90    
       -99.90      -99.90      -99.90      -99.90      -99.90      -99.90      -99.90      -99.90      -99.90      -99.90    
       -99.90      -99.90      -99.90      -99.90      -99.90      -99.90      -99.90      -99.90      -99.90      -99.90    
       -99.90      -99.90      -99.90      -99.90      -99.90      -99.90      -99.90      -99.90      -99.90      -99.90    
  19   -99.90      -99.90      -99.90      -99.90      -99.90      -99.90      -99.90      -99.90      -99.90      -99.90    
       -99.90      -99.90      -99.90      -99.90      -99.90      -99.90      -99.90      -99.90      -99.90      -99.90    
       -99.90      -99.90      -99.90      -99.90      -99.90      -99.90      -99.90      -99.90      -99.90      -99.90    
       -99.90      -99.90      -99.90      -99.90      -99.90      -99.90      -99.90      -99.90      -99.90      -99.90    
  20   -99.90      -99.90      -99.90      -99.90      -99.90      -99.90      -99.90      -99.90      -99.90      -99.90    
       -99.90      -99.90      -99.90      -99.90      -99.90      -99.90      -99.90      -99.90      -99.90      -99.90    
       -99.90      -99.90      -99.90      -99.90      -99.90      -99.90      -99.90      -99.90      -99.90      -99.90    
       -99.90      -99.90      -99.90      -99.90      -99.90      -99.90      -99.90      -99.90      -99.90      -99.90    
  21   -99.90      -99.90      -99.90      -99.90      -99.90      -99.90      -99.90      -99.90      -99.90      -99.90    
       -99.90      -99.90      -99.90      -99.90      -99.90      -99.90      -99.90      -99.90      -99.90      -99.90    
       -99.90      -99.90      -99.90      -99.90      -99.90      -99.90      -99.90      -99.90      -99.90      -99.90    
       -99.90      -99.90      -99.90      -99.90      -99.90      -99.90      -99.90      -99.90      -99.90      -99.90    
  22   -99.90      -99.90      -99.90      -99.90      -99.90      -99.90      -99.90      -99.90      -99.90      -99.90    
       -99.90      -99.90      -99.90      -99.90      -99.90      -99.90      -99.90      -99.90      -99.90      -99.90    
       -99.90      -99.90      -99.90      -99.90      -99.90      -99.90      -99.90      -99.90      -99.90      -99.90    
       -99.90      -99.90      -99.90      -99.90      -99.90      -99.90      -99.90      -99.90      -99.90      -99.90    
  23   -99.90      -99.90      -99.90      -99.90      -99.90      -99.90      -99.90      -99.90      -99.90      -99.90    
       -99.90      -99.90      -99.90      -99.90      -99.90      -99.90      -99.90      -99.90      -99.90      -99.90    
       -99.90      -99.90      -99.90      -99.90      -99.90      -99.90      -99.90      -99.90      -99.90      -99.90    
       -99.90      -99.90      -99.90      -99.90      -99.90      -99.90      -99.90      -99.90      -99.90      -99.90    
  24   -99.90      -99.90      -99.90      -99.90      -99.90      -99.90      -99.90      -99.90      -99.90      -99.90    
       -99.90      -99.90      -99.90      -99.90      -99.90      -99.90      -99.90      -99.90      -99.90      -99.90    
       -99.90      -99.90      -99.90      -99.90      -99.90      -99.90      -99.90      -99.90      -99.90      -99.90    
       -99.90      -99.90      -99.90      -99.90      -99.90      -99.90      -99.90      -99.90      -99.90      -99.90    
  25   -99.90      -99.90      -99.90      -99.90      -99.90      -99.90      -99.90      -99.90      -99.90      -99.90    
       -99.90      -99.90      -99.90      -99.90      -99.90      -99.90      -99.90      -99.90      -99.90      -99.90    
       -99.90      -99.90      -99.90      -99.90      -99.90      -99.90      -99.90      -99.90      -99.90      -99.90    
       -99.90      -99.90      -99.90      -99.90      -99.90      -99.90      -99.90      -99.90      -99.90      -99.90    
  26   -99.90      -99.90      -99.90      -99.90      -99.90      -99.90      -99.90      -99.90      -99.90      -99.90    
       -99.90      -99.90      -99.90      -99.90      -99.90      -99.90      -99.90      -99.90      -99.90      -99.90    
       -99.90      -99.90      -99.90      -99.90      -99.90      -99.90      -99.90      -99.90      -99.90      -99.90    
       -99.90      -99.90      -99.90      -99.90      -99.90      -99.90      -99.90      -99.90      -99.90      -99.90    
  27   -99.90      -99.90      -99.90      -99.90      -99.90      -99.90      -99.90      -99.90      -99.90      -99.90    
       -99.90      -99.90      -99.90      -99.90      -99.90      -99.90      -99.90      -99.90      -99.90      -99.90    
       -99.90      -99.90      -99.90      -99.90      -99.90      -99.90      -99.90      -99.90      -99.90      -99.90    
       -99.90      -99.90      -99.90      -99.90      -99.90      -99.90      -99.90      -99.90      -99.90      -99.90    
  28   -99.90      -99.90      -99.90      -99.90      -99.90      -99.90      -99.90      -99.90      -99.90      -99.90    
       -99.90      -99.90      -99.90      -99.90      -99.90      -99.90      -99.90      -99.90      -99.90      -99.90    
       -99.90      -99.90      -99.90      -99.90      -99.90      -99.90      -99.90      -99.90      -99.90      -99.90    
       -99.90      -99.90      -99.90      -99.90      -99.90      -99.90      -99.90      -99.90      -99.90      -99.90    
  29   -99.90      -99.90      -99.90      -99.90      -99.90      -99.90      -99.90      -99.90      -99.90      -99.90    
       -99.90      -99.90      -99.90      -99.90      -99.90      -99.90      -99.90      -99.90      -99.90      -99.90    
       -99.90      -99.90      -99.90      -99.90      -99.90      -99.90      -99.90      -99.90      -99.90      -99.90    
       -99.90      -99.90      -99.90      -99.90      -99.90      -99.90      -99.90      -99.90      -99.90      -99.90    
  30   -99.90      -99.90      -99.90      -99.90      -99.90      -99.90      -99.90      -99.90      -99.90      -99.90    
       -99.90      -99.90      -99.90      -99.90      -99.90      -99.90      -99.90      -99.90      -99.90      -99.90    
       -99.90      -99.90      -99.90      -99.90      -99.90      -99.90      -99.90      -99.90      -99.90      -99.90    
       -99.90      -99.90      -99.90      -99.90      -99.90      -99.90      -99.90      -99.90      -99.90      -99.90    
  31   -99.90      -99.90      -99.90      -99.90      -99.90      -99.90      -99.90      -99.90      -99.90      -99.90    
       -99.90      -99.90      -99.90      -99.90      -99.90      -99.90      -99.90      -99.90      -99.90      -99.90    
       -99.90      -99.90      -99.90      -99.90      -99.90      -99.90      -99.90      -99.90      -99.90      -99.90    
       -99.90      -99.90      -99.90      -99.90      -99.90      -99.90      -99.90      -99.90      -99.90      -99.90    
  32   -99.90      -99.90      -99.90      -99.90      -99.90      -99.90      -99.90      -99.90      -99.90      -99.90    
       -99.90      -99.90      -99.90      -99.90      -99.90      -99.90      -99.90      -99.90      -99.90      -99.90    
       -99.90      -99.90      -99.90      -99.90      -99.90      -99.90      -99.90      -99.90      -99.90      -99.90    
       -99.90      -99.90      -99.90      -99.90      -99.90      -99.90      -99.90      -99.90      -99.90      -99.90    
  33   -99.90      -99.90      -99.90      -99.90      -99.90      -99.90      -99.90      -99.90      -99.90      -99.90    
       -99.90      -99.90      -99.90      -99.90      -99.90      -99.90      -99.90      -99.90      -99.90      -99.90    
       -99.90      -99.90      -99.90      -99.90      -99.90      -99.90      -99.90      -99.90      -99.90      -99.90    
       -99.90      -99.90      -99.90      -99.90      -99.90      -99.90      -99.90      -99.90      -99.90      -99.90    
  34   -99.90      -99.90      -99.90      -99.90      -99.90      -99.90      -99.90      -99.90      -99.90      -99.90    
       -99.90      -99.90      -99.90      -99.90      -99.90      -99.90      -99.90      -99.90      -99.90      -99.90    
       -99.90      -99.90      -99.90      -99.90      -99.90      -99.90      -99.90      -99.90      -99.90      -99.90    
       -99.90      -99.90      -99.90      -99.90      -99.90      -99.90      -99.90      -99.90      -99.90      -99.90    
  35   -99.90      -99.90      -99.90      -99.90      -99.90      -99.90      -99.90      -99.90      -99.90      -99.90    
       -99.90      -99.90      -99.90      -99.90      -99.90      -99.90      -99.90      -99.90      -99.90      -99.90    
       -99.90      -99.90      -99.90      -99.90      -99.90      -99.90      -99.90      -99.90      -99.90      -99.90    
       -99.90      -99.90      -99.90      -99.90      -99.90      -99.90      -99.90      -99.90      -99.90      -99.90    
  36   -99.90      -99.90      -99.90      -99.90      -99.90      -99.90      -99.90      -99.90      -99.90      -99.90    
       -99.90      -99.90      -99.90      -99.90      -99.90      -99.90      -99.90      -99.90      -99.90      -99.90    
       -99.90      -99.90      -99.90      -99.90      -99.90      -99.90      -99.90      -99.90      -99.90      -99.90    
       -99.90      -99.90      -99.90      -99.90      -99.90      -99.90      -99.90      -99.90      -99.90      -99.90    
  37   -99.90      -99.90      -99.90      -99.90      -99.90      -99.90      -99.90      -99.90      -99.90      -99.90    
       -99.90      -99.90      -99.90      -99.90      -99.90      -99.90      -99.90      -99.90      -99.90      -99.90    
       -99.90      -99.90      -99.90      -99.90      -99.90      -99.90      -99.90      -99.90      -99.90      -99.90    
       -99.90      -99.90      -99.90      -99.90      -99.90      -99.90      -99.90      -99.90      -99.90      -99.90    
  38   -99.90      -99.90      -99.90      -99.90      -99.90      -99.90      -99.90      -99.90      -99.90      -99.90    
       -99.90      -99.90      -99.90      -99.90      -99.90      -99.90      -99.90      -99.90      -99.90      -99.90    
       -99.90      -99.90      -99.90      -99.90      -99.90      -99.90      -99.90      -99.90      -99.90      -99.90    
       -99.90      -99.90      -99.90      -99.90      -99.90      -99.90      -99.90      -99.90      -99.90      -99.90    
  39   -99.90      -99.90      -99.90      -99.90      -99.90      -99.90      -99.90      -99.90      -99.90      -99.90    
       -99.90      -99.90      -99.90      -99.90      -99.90      -99.90      -99.90      -99.90      -99.90      -99.90    
       -99.90      -99.90      -99.90      -99.90      -99.90      -99.90      -99.90      -99.90      -99.90      -99.90    
       -99.90      -99.90      -99.90      -99.90      -99.90      -99.90      -99.90      -99.90      -99.90      -99.90    
  40   -99.90      -99.90      -99.90      -99.90      -99.90      -99.90      -99.90      -99.90      -99.90      -99.90    
       -99.90      -99.90      -99.90      -99.90      -99.90      -99.90      -99.90      -99.90      -99.90      -99.90    
       -99.90      -99.90      -99.90      -99.90      -99.90      -99.90      -99.90      -99.90      -99.90      -99.90    
       -99.90      -99.90      -99.90      -99.90      -99.90      -99.90      -99.90      -99.90      -99.90      -99.90    
1
              HEAD IN LAYER   4 AT END OF TIME STEP   1 IN STRESS PERIOD    1
  ---------------------------------------------------------------------------

            1           2           3           4           5           6           7           8           9          10
           11          12          13          14          15          16          17          18          19          20
           21          22          23          24          25          26          27          28          29          30
           31          32          33          34          35          36          37          38          39          40
 ........................................................................................................................
   1   -99.90      -99.90      -99.90      -99.90      -99.90      -99.90      -99.90      -99.90      -99.90      -99.90    
       -99.90      -99.90      -99.90      -99.90      -99.90      -99.90      -99.90      -99.90      -99.90      -99.90    
       -99.90      -99.90      -99.90      -99.90      -99.90      -99.90      -99.90      -99.90      -99.90      -99.90    
       -99.90      -99.90      -99.90      -99.90      -99.90      -99.90      -99.90      -99.90      -99.90      -99.90    
   2   -99.90      -99.90      -99.90      -99.90      -99.90      -99.90      -99.90      -99.90      -99.90      -99.90    
       -99.90      -99.90      -99.90      -99.90      -99.90      -99.90      -99.90      -99.90      -99.90      -99.90    
       -99.90      -99.90      -99.90      -99.90      -99.90      -99.90      -99.90      -99.90      -99.90      -99.90    
       -99.90      -99.90      -99.90      -99.90      -99.90      -99.90      -99.90      -99.90      -99.90      -99.90    
   3   -99.90      -99.90      -99.90      -99.90      -99.90      -99.90      -99.90      -99.90      -99.90      -99.90    
       -99.90      -99.90      -99.90      -99.90      -99.90      -99.90      -99.90      -99.90      -99.90      -99.90    
       -99.90      -99.90      -99.90      -99.90      -99.90      -99.90      -99.90      -99.90      -99.90      -99.90    
       -99.90      -99.90      -99.90      -99.90      -99.90      -99.90      -99.90      -99.90      -99.90      -99.90    
   4   -99.90      -99.90      -99.90      -99.90      -99.90      -99.90      -99.90      -99.90      -99.90      -99.90    
       -99.90      -99.90      -99.90      -99.90      -99.90      -99.90      -99.90      -99.90      -99.90      -99.90    
       -99.90      -99.90      -99.90      -99.90      -99.90      -99.90      -99.90      -99.90      -99.90      -99.90    
       -99.90      -99.90      -99.90      -99.90      -99.90      -99.90      -99.90      -99.90      -99.90      -99.90    
   5   -99.90      -99.90      -99.90      -99.90      -99.90      -99.90      -99.90      -99.90      -99.90      -99.90    
       -99.90      -99.90      -99.90      -99.90      -99.90      -99.90      -99.90      -99.90      -99.90      -99.90    
       -99.90      -99.90      -99.90      -99.90      -99.90      -99.90      -99.90      -99.90      -99.90      -99.90    
       -99.90      -99.90      -99.90      -99.90      -99.90      -99.90      -99.90      -99.90      -99.90      -99.90    
   6   -99.90      -99.90      -99.90      -99.90      -99.90      -99.90      -99.90      -99.90      -99.90      -99.90    
       -99.90      -99.90      -99.90      -99.90      -99.90      -99.90      -99.90      -99.90      -99.90      -99.90    
       -99.90      -99.90      -99.90      -99.90      -99.90      -99.90      -99.90      -99.90      -99.90      -99.90    
       -99.90      -99.90      -99.90      -99.90      -99.90      -99.90      -99.90      -99.90      -99.90      -99.90    
   7   -99.90      -99.90      -99.90      -99.90      -99.90      -99.90      -99.90      -99.90      -99.90      -99.90    
       -99.90      -99.90      -99.90      -99.90      -99.90      -99.90      -99.90      -99.90      -99.90      -99.90    
       -99.90      -99.90      -99.90      -99.90      -99.90      -99.90      -99.90      -99.90      -99.90      -99.90    
       -99.90      -99.90      -99.90      -99.90      -99.90      -99.90      -99.90      -99.90      -99.90      -99.90    
   8   -99.90      -99.90      -99.90      -99.90      -99.90      -99.90      -99.90      -99.90      -99.90      -99.90    
       -99.90      -99.90      -99.90      -99.90      -99.90      -99.90      -99.90      -99.90      -99.90      -99.90    
       -99.90      -99.90      -99.90      -99.90      -99.90      -99.90      -99.90      -99.90      -99.90      -99.90    
       -99.90      -99.90      -99.90      -99.90      -99.90      -99.90      -99.90      -99.90      -99.90      -99.90    
   9   -99.90      -99.90      -99.90      -99.90      -99.90      -99.90      -99.90      -99.90      -99.90      -99.90    
       -99.90      -99.90      -99.90      -99.90      -99.90      -99.90      -99.90      -99.90      -99.90      -99.90    
       -99.90      -99.90      -99.90      -99.90      -99.90      -99.90      -99.90      -99.90      -99.90      -99.90    
       -99.90      -99.90      -99.90      -99.90      -99.90      -99.90      -99.90      -99.90      -99.90      -99.90    
  10   -99.90      -99.90      -99.90      -99.90      -99.90      -99.90      -99.90      -99.90      -99.90      -99.90    
       -99.90      -99.90      -99.90      -99.90      -99.90      -99.90      -99.90      -99.90      -99.90      -99.90    
       -99.90      -99.90      -99.90      -99.90      -99.90      -99.90      -99.90      -99.90      -99.90      -99.90    
       -99.90      -99.90      -99.90      -99.90      -99.90      -99.90      -99.90      -99.90      -99.90      -99.90    
  11   -99.90      -99.90      -99.90      -99.90      -99.90      -99.90      -99.90      -99.90      -99.90      -99.90    
       -99.90      -99.90      -99.90      -99.90      -99.90      -99.90      -99.90      -99.90      -99.90      -99.90    
       -99.90      -99.90      -99.90      -99.90      -99.90      -99.90      -99.90      -99.90      -99.90      -99.90    
       -99.90      -99.90      -99.90      -99.90      -99.90      -99.90      -99.90      -99.90      -99.90      -99.90    
  12   -99.90      -99.90      -99.90      -99.90      -99.90      -99.90      -99.90      -99.90      -99.90      -99.90    
       -99.90      -99.90      -99.90      -99.90      -99.90      -99.90      -99.90      -99.90      -99.90      -99.90    
       -99.90      -99.90      -99.90      -99.90      -99.90      -99.90      -99.90      -99.90      -99.90      -99.90    
       -99.90      -99.90      -99.90      -99.90      -99.90      -99.90      -99.90      -99.90      -99.90      -99.90    
  13   -99.90      -99.90      -99.90      -99.90      -99.90      -99.90      -99.90      -99.90      -99.90      -99.90    
       -99.90      -99.90      -99.90      -99.90      -99.90      -99.90      -99.90      -99.90      -99.90      -99.90    
       -99.90      -99.90      -99.90      -99.90      -99.90      -99.90      -99.90      -99.90      -99.90      -99.90    
       -99.90      -99.90      -99.90      -99.90      -99.90      -99.90      -99.90      -99.90      -99.90      -99.90    
  14   -99.90      -99.90      -99.90      -99.90      -99.90      -99.90      -99.90      -99.90      -99.90      -99.90    
       -99.90      -99.90      -99.90      -99.90      -99.90      -99.90      -99.90      -99.90      -99.90      -99.90    
       -99.90      -99.90      -99.90      -99.90      -99.90      -99.90      -99.90      -99.90      -99.90      -99.90    
       -99.90      -99.90      -99.90      -99.90      -99.90      -99.90      -99.90      -99.90      -99.90      -99.90    
  15   -99.90      -99.90      -99.90      -99.90      -99.90      -99.90      -99.90      -99.90      -99.90      -99.90    
       -99.90      -99.90      -99.90      -99.90      -99.90      -99.90      -99.90      -99.90      -99.90      -99.90    
       -99.90      -99.90      -99.90      -99.90      -99.90      -99.90      -99.90      -99.90      -99.90      -99.90    
       -99.90      -99.90      -99.90      -99.90      -99.90      -99.90      -99.90      -99.90      -99.90      -99.90    
  16   -99.90      -99.90      -99.90      -99.90      -99.90      -99.90      -99.90      -99.90      -99.90      -99.90    
       -99.90      -99.90      -99.90      -99.90      -99.90      -99.90      -99.90      -99.90      -99.90      -99.90    
       -99.90      -99.90      -99.90      -99.90      -99.90      -99.90      -99.90      -99.90      -99.90      -99.90    
       -99.90      -99.90      -99.90      -99.90      -99.90      -99.90      -99.90      -99.90      -99.90      -99.90    
  17   -99.90      -99.90      -99.90      -99.90      -99.90      -99.90      -99.90      -99.90      -99.90      -99.90    
       -99.90      -99.90      -99.90      -99.90      -99.90      -99.90      -99.90      -99.90      -99.90      -99.90    
       -99.90      -99.90      -99.90      -99.90      -99.90      -99.90      -99.90      -99.90      -99.90      -99.90    
       -99.90      -99.90      -99.90      -99.90      -99.90      -99.90      -99.90      -99.90      -99.90      -99.90    
  18   -99.90      -99.90      -99.90      -99.90      -99.90      -99.90      -99.90      -99.90      -99.90      -99.90    
       -99.90      -99.90      -99.90      -99.90      -99.90      -99.90      -99.90      -99.90      -99.90      -99.90    
       -99.90      -99.90      -99.90      -99.90      -99.90      -99.90      -99.90      -99.90      -99.90      -99.90    
       -99.90      -99.90      -99.90      -99.90      -99.90      -99.90      -99.90      -99.90      -99.90      -99.90    
  19   -99.90      -99.90      -99.90      -99.90      -99.90      -99.90      -99.90      -99.90      -99.90      -99.90    
       -99.90      -99.90      -99.90      -99.90      -99.90      -99.90      -99.90      -99.90      -99.90      -99.90    
       -99.90      -99.90      -99.90      -99.90      -99.90      -99.90      -99.90      -99.90      -99.90      -99.90    
       -99.90      -99.90      -99.90      -99.90      -99.90      -99.90      -99.90      -99.90      -99.90      -99.90    
  20   -99.90      -99.90      -99.90      -99.90      -99.90      -99.90      -99.90      -99.90      -99.90      -99.90    
       -99.90      -99.90      -99.90      -99.90      -99.90      -99.90      -99.90      -99.90      -99.90      -99.90    
       -99.90      -99.90      -99.90      -99.90      -99.90      -99.90      -99.90      -99.90      -99.90      -99.90    
       -99.90      -99.90      -99.90      -99.90      -99.90      -99.90      -99.90      -99.90      -99.90      -99.90    
  21   -99.90      -99.90      -99.90      -99.90      -99.90      -99.90      -99.90      -99.90      -99.90      -99.90    
       -99.90      -99.90      -99.90      -99.90      -99.90      -99.90      -99.90      -99.90      -99.90      -99.90    
       -99.90      -99.90      -99.90      -99.90      -99.90      -99.90      -99.90      -99.90      -99.90      -99.90    
       -99.90      -99.90      -99.90      -99.90      -99.90      -99.90      -99.90      -99.90      -99.90      -99.90    
  22   -99.90      -99.90      -99.90      -99.90      -99.90      -99.90      -99.90      -99.90      -99.90      -99.90    
       -99.90      -99.90      -99.90      -99.90      -99.90      -99.90      -99.90      -99.90      -99.90      -99.90    
       -99.90      -99.90      -99.90      -99.90      -99.90      -99.90      -99.90      -99.90      -99.90      -99.90    
       -99.90      -99.90      -99.90      -99.90      -99.90      -99.90      -99.90      -99.90      -99.90      -99.90    
  23   -99.90      -99.90      -99.90      -99.90      -99.90      -99.90      -99.90      -99.90      -99.90      -99.90    
       -99.90      -99.90      -99.90      -99.90      -99.90      -99.90      -99.90      -99.90      -99.90      -99.90    
       -99.90      -99.90      -99.90      -99.90      -99.90      -99.90      -99.90      -99.90      -99.90      -99.90    
       -99.90      -99.90      -99.90      -99.90      -99.90      -99.90      -99.90      -99.90      -99.90      -99.90    
  24   -99.90      -99.90      -99.90      -99.90      -99.90      -99.90      -99.90      -99.90      -99.90      -99.90    
       -99.90      -99.90      -99.90      -99.90      -99.90      -99.90      -99.90      -99.90      -99.90      -99.90    
       -99.90      -99.90      -99.90      -99.90      -99.90      -99.90      -99.90      -99.90      -99.90      -99.90    
       -99.90      -99.90      -99.90      -99.90      -99.90      -99.90      -99.90      -99.90      -99.90      -99.90    
  25   -99.90      -99.90      -99.90      -99.90      -99.90      -99.90      -99.90      -99.90      -99.90      -99.90    
       -99.90      -99.90      -99.90      -99.90      -99.90      -99.90      -99.90      -99.90      -99.90      -99.90    
       -99.90      -99.90      -99.90      -99.90      -99.90      -99.90      -99.90      -99.90      -99.90      -99.90    
       -99.90      -99.90      -99.90      -99.90      -99.90      -99.90      -99.90      -99.90      -99.90      -99.90    
  26   -99.90      -99.90      -99.90      -99.90      -99.90      -99.90      -99.90      -99.90      -99.90      -99.90    
       -99.90      -99.90      -99.90      -99.90      -99.90      -99.90      -99.90      -99.90      -99.90      -99.90    
       -99.90      -99.90      -99.90      -99.90      -99.90      -99.90      -99.90      -99.90      -99.90      -99.90    
       -99.90      -99.90      -99.90      -99.90      -99.90      -99.90      -99.90      -99.90      -99.90      -99.90    
  27   -99.90      -99.90      -99.90      -99.90      -99.90      -99.90      -99.90      -99.90      -99.90      -99.90    
       -99.90      -99.90      -99.90      -99.90      -99.90      -99.90      -99.90      -99.90      -99.90      -99.90    
       -99.90      -99.90      -99.90      -99.90      -99.90      -99.90      -99.90      -99.90      -99.90      -99.90    
       -99.90      -99.90      -99.90      -99.90      -99.90      -99.90      -99.90      -99.90      -99.90      -99.90    
  28   -99.90      -99.90      -99.90      -99.90      -99.90      -99.90      -99.90      -99.90      -99.90      -99.90    
       -99.90      -99.90      -99.90      -99.90      -99.90      -99.90      -99.90      -99.90      -99.90      -99.90    
       -99.90      -99.90      -99.90      -99.90      -99.90      -99.90      -99.90      -99.90      -99.90      -99.90    
       -99.90      -99.90      -99.90      -99.90      -99.90      -99.90      -99.90      -99.90      -99.90      -99.90    
  29   -99.90      -99.90      -99.90      -99.90      -99.90      -99.90      -99.90      -99.90      -99.90      -99.90    
       -99.90      -99.90      -99.90      -99.90      -99.90      -99.90      -99.90      -99.90      -99.90      -99.90    
       -99.90      -99.90      -99.90      -99.90      -99.90      -99.90      -99.90      -99.90      -99.90      -99.90    
       -99.90      -99.90      -99.90      -99.90      -99.90      -99.90      -99.90      -99.90      -99.90      -99.90    
  30   -99.90      -99.90      -99.90      -99.90      -99.90      -99.90      -99.90      -99.90      -99.90      -99.90    
       -99.90      -99.90      -99.90      -99.90      -99.90      -99.90      -99.90      -99.90      -99.90      -99.90    
       -99.90      -99.90      -99.90      -99.90      -99.90      -99.90      -99.90      -99.90      -99.90      -99.90    
       -99.90      -99.90      -99.90      -99.90      -99.90      -99.90      -99.90      -99.90      -99.90      -99.90    
  31   -99.90      -99.90      -99.90      -99.90      -99.90      -99.90      -99.90      -99.90      -99.90      -99.90    
       -99.90      -99.90      -99.90      -99.90      -99.90      -99.90      -99.90      -99.90      -99.90      -99.90    
       -99.90      -99.90      -99.90      -99.90      -99.90      -99.90      -99.90      -99.90      -99.90      -99.90    
       -99.90      -99.90      -99.90      -99.90      -99.90      -99.90      -99.90      -99.90      -99.90      -99.90    
  32   -99.90      -99.90      -99.90      -99.90      -99.90      -99.90      -99.90      -99.90      -99.90      -99.90    
       -99.90      -99.90      -99.90      -99.90      -99.90      -99.90      -99.90      -99.90      -99.90      -99.90    
       -99.90      -99.90      -99.90      -99.90      -99.90      -99.90      -99.90      -99.90      -99.90      -99.90    
       -99.90      -99.90      -99.90      -99.90      -99.90      -99.90      -99.90      -99.90      -99.90      -99.90    
  33   -99.90      -99.90      -99.90      -99.90      -99.90      -99.90      -99.90      -99.90      -99.90      -99.90    
       -99.90      -99.90      -99.90      -99.90      -99.90      -99.90      -99.90      -99.90      -99.90      -99.90    
       -99.90      -99.90      -99.90      -99.90      -99.90      -99.90      -99.90      -99.90      -99.90      -99.90    
       -99.90      -99.90      -99.90      -99.90      -99.90      -99.90      -99.90      -99.90      -99.90      -99.90    
  34   -99.90      -99.90      -99.90      -99.90      -99.90      -99.90      -99.90      -99.90      -99.90      -99.90    
       -99.90      -99.90      -99.90      -99.90      -99.90      -99.90      -99.90      -99.90      -99.90      -99.90    
       -99.90      -99.90      -99.90      -99.90      -99.90      -99.90      -99.90      -99.90      -99.90      -99.90    
       -99.90      -99.90      -99.90      -99.90      -99.90      -99.90      -99.90      -99.90      -99.90      -99.90    
  35   -99.90      -99.90      -99.90      -99.90      -99.90      -99.90      -99.90      -99.90      -99.90      -99.90    
       -99.90      -99.90      -99.90      -99.90      -99.90      -99.90      -99.90      -99.90      -99.90      -99.90    
       -99.90      -99.90      -99.90      -99.90      -99.90      -99.90      -99.90      -99.90      -99.90      -99.90    
       -99.90      -99.90      -99.90      -99.90      -99.90      -99.90      -99.90      -99.90      -99.90      -99.90    
  36   -99.90      -99.90      -99.90      -99.90      -99.90      -99.90      -99.90      -99.90      -99.90      -99.90    
       -99.90      -99.90      -99.90      -99.90      -99.90      -99.90      -99.90      -99.90      -99.90      -99.90    
       -99.90      -99.90      -99.90      -99.90      -99.90      -99.90      -99.90      -99.90      -99.90      -99.90    
       -99.90      -99.90      -99.90      -99.90      -99.90      -99.90      -99.90      -99.90      -99.90      -99.90    
  37   -99.90      -99.90      -99.90      -99.90      -99.90      -99.90      -99.90      -99.90      -99.90      -99.90    
       -99.90      -99.90      -99.90      -99.90      -99.90      -99.90      -99.90      -99.90      -99.90      -99.90    
       -99.90      -99.90      -99.90      -99.90      -99.90      -99.90      -99.90      -99.90      -99.90      -99.90    
       -99.90      -99.90      -99.90      -99.90      -99.90      -99.90      -99.90      -99.90      -99.90      -99.90    
  38   -99.90      -99.90      -99.90      -99.90      -99.90      -99.90      -99.90      -99.90      -99.90      -99.90    
       -99.90      -99.90      -99.90      -99.90      -99.90      -99.90      -99.90      -99.90      -99.90      -99.90    
       -99.90      -99.90      -99.90      -99.90      -99.90      -99.90      -99.90      -99.90      -99.90      -99.90    
       -99.90      -99.90      -99.90      -99.90      -99.90      -99.90      -99.90      -99.90      -99.90      -99.90    
  39   -99.90      -99.90      -99.90      -99.90      -99.90      -99.90      -99.90      -99.90      -99.90      -99.90    
       -99.90      -99.90      -99.90      -99.90      -99.90      -99.90      -99.90      -99.90      -99.90      -99.90    
       -99.90      -99.90      -99.90      -99.90      -99.90      -99.90      -99.90      -99.90      -99.90      -99.90    
       -99.90      -99.90      -99.90      -99.90      -99.90      -99.90      -99.90      -99.90      -99.90      -99.90    
  40   -99.90      -99.90      -99.90      -99.90      -99.90      -99.90      -99.90      -99.90      -99.90      -99.90    
       -99.90      -99.90      -99.90      -99.90      -99.90      -99.90      -99.90      -99.90      -99.90      -99.90    
       -99.90      -99.90      -99.90      -99.90      -99.90      -99.90      -99.90      -99.90      -99.90      -99.90    
       -99.90      -99.90      -99.90      -99.90      -99.90      -99.90      -99.90      -99.90      -99.90      -99.90    
1
              HEAD IN LAYER   5 AT END OF TIME STEP   1 IN STRESS PERIOD    1
  ---------------------------------------------------------------------------

            1           2           3           4           5           6           7           8           9          10
           11          12          13          14          15          16          17          18          19          20
           21          22          23          24          25          26          27          28          29          30
           31          32          33          34          35          36          37          38          39          40
 ........................................................................................................................
   1   -99.90      -99.90      -99.90      -99.90      -99.90      -99.90      -99.90      -99.90      -99.90      -99.90    
       -99.90      -99.90      -99.90      -99.90      -99.90      -99.90      -99.90      -99.90      -99.90      -99.90    
       -99.90      -99.90      -99.90      -99.90      -99.90      -99.90      -99.90      -99.90      -99.90      -99.90    
       -99.90      -99.90      -99.90      -99.90      -99.90      -99.90      -99.90      -99.90      -99.90      -99.90    
   2   -99.90      -99.90      -99.90      -99.90      -99.90      -99.90      -99.90      -99.90      -99.90      -99.90    
       -99.90      -99.90      -99.90      -99.90      -99.90      -99.90      -99.90      -99.90      -99.90      -99.90    
       -99.90      -99.90      -99.90      -99.90      -99.90      -99.90      -99.90      -99.90      -99.90      -99.90    
       -99.90      -99.90      -99.90      -99.90      -99.90      -99.90      -99.90      -99.90      -99.90      -99.90    
   3   -99.90      -99.90      -99.90      -99.90      -99.90      -99.90      -99.90      -99.90      -99.90      -99.90    
       -99.90      -99.90      -99.90      -99.90      -99.90      -99.90      -99.90      -99.90      -99.90      -99.90    
       -99.90      -99.90      -99.90      -99.90      -99.90      -99.90      -99.90      -99.90      -99.90      -99.90    
       -99.90      -99.90      -99.90      -99.90      -99.90      -99.90      -99.90      -99.90      -99.90      -99.90    
   4   -99.90      -99.90      -99.90      -99.90      -99.90      -99.90      -99.90      -99.90      -99.90      -99.90    
       -99.90      -99.90      -99.90      -99.90      -99.90      -99.90      -99.90      -99.90      -99.90      -99.90    
       -99.90      -99.90      -99.90      -99.90      -99.90      -99.90      -99.90      -99.90      -99.90      -99.90    
       -99.90      -99.90      -99.90      -99.90      -99.90      -99.90      -99.90      -99.90      -99.90      -99.90    
   5   -99.90      -99.90      -99.90      -99.90      -99.90      -99.90      -99.90      -99.90      -99.90      -99.90    
       -99.90      -99.90      -99.90      -99.90      -99.90      -99.90      -99.90      -99.90      -99.90      -99.90    
       -99.90      -99.90      -99.90      -99.90      -99.90      -99.90      -99.90      -99.90      -99.90      -99.90    
       -99.90      -99.90      -99.90      -99.90      -99.90      -99.90      -99.90      -99.90      -99.90      -99.90    
   6   -99.90      -99.90      -99.90      -99.90      -99.90      -99.90      -99.90      -99.90      -99.90      -99.90    
       -99.90      -99.90      -99.90      -99.90      -99.90      -99.90      -99.90      -99.90      -99.90      -99.90    
       -99.90      -99.90      -99.90      -99.90      -99.90      -99.90      -99.90      -99.90      -99.90      -99.90    
       -99.90      -99.90      -99.90      -99.90      -99.90      -99.90      -99.90      -99.90      -99.90      -99.90    
   7   -99.90      -99.90      -99.90      -99.90      -99.90      -99.90      -99.90      -99.90      -99.90      -99.90    
       -99.90      -99.90      -99.90      -99.90      -99.90      -99.90      -99.90      -99.90      -99.90      -99.90    
       -99.90      -99.90      -99.90      -99.90      -99.90      -99.90      -99.90      -99.90      -99.90      -99.90    
       -99.90      -99.90      -99.90      -99.90      -99.90      -99.90      -99.90      -99.90      -99.90      -99.90    
   8   -99.90      -99.90      -99.90      -99.90      -99.90      -99.90      -99.90      -99.90      -99.90      -99.90    
       -99.90      -99.90      -99.90      -99.90      -99.90      -99.90      -99.90      -99.90      -99.90      -99.90    
       -99.90      -99.90      -99.90      -99.90      -99.90      -99.90      -99.90      -99.90      -99.90      -99.90    
       -99.90      -99.90      -99.90      -99.90      -99.90      -99.90      -99.90      -99.90      -99.90      -99.90    
   9   -99.90      -99.90      -99.90      -99.90      -99.90      -99.90      -99.90      -99.90      -99.90      -99.90    
       -99.90      -99.90      -99.90      -99.90      -99.90      -99.90      -99.90      -99.90      -99.90      -99.90    
       -99.90      -99.90      -99.90      -99.90      -99.90      -99.90      -99.90      -99.90      -99.90      -99.90    
       -99.90      -99.90      -99.90      -99.90      -99.90      -99.90      -99.90      -99.90      -99.90      -99.90    
  10   -99.90      -99.90      -99.90      -99.90      -99.90      -99.90      -99.90      -99.90      -99.90      -99.90    
       -99.90      -99.90      -99.90      -99.90      -99.90      -99.90      -99.90      -99.90      -99.90      -99.90    
       -99.90      -99.90      -99.90      -99.90      -99.90      -99.90      -99.90      -99.90      -99.90      -99.90    
       -99.90      -99.90      -99.90      -99.90      -99.90      -99.90      -99.90      -99.90      -99.90      -99.90    
  11   -99.90      -99.90      -99.90      -99.90      -99.90      -99.90      -99.90      -99.90      -99.90      -99.90    
       -99.90      -99.90      -99.90      -99.90      -99.90      -99.90      -99.90      -99.90      -99.90      -99.90    
       -99.90      -99.90      -99.90      -99.90      -99.90      -99.90      -99.90      -99.90      -99.90      -99.90    
       -99.90      -99.90      -99.90      -99.90      -99.90      -99.90      -99.90      -99.90      -99.90      -99.90    
  12   -99.90      -99.90      -99.90      -99.90      -99.90      -99.90      -99.90      -99.90      -99.90      -99.90    
       -99.90      -99.90      -99.90      -99.90      -99.90      -99.90      -99.90      -99.90      -99.90      -99.90    
       -99.90      -99.90      -99.90      -99.90      -99.90      -99.90      -99.90      -99.90      -99.90      -99.90    
       -99.90      -99.90      -99.90      -99.90      -99.90      -99.90      -99.90      -99.90      -99.90      -99.90    
  13   -99.90      -99.90      -99.90      -99.90      -99.90      -99.90      -99.90      -99.90      -99.90      -99.90    
       -99.90      -99.90      -99.90      -99.90      -99.90      -99.90      -99.90      -99.90      -99.90      -99.90    
       -99.90      -99.90      -99.90      -99.90      -99.90      -99.90      -99.90      -99.90      -99.90      -99.90    
       -99.90      -99.90      -99.90      -99.90      -99.90      -99.90      -99.90      -99.90      -99.90      -99.90    
  14   -99.90      -99.90      -99.90      -99.90      -99.90      -99.90      -99.90      -99.90      -99.90      -99.90    
       -99.90      -99.90      -99.90      -99.90      -99.90      -99.90      -99.90      -99.90      -99.90      -99.90    
       -99.90      -99.90      -99.90      -99.90      -99.90      -99.90      -99.90      -99.90      -99.90      -99.90    
       -99.90      -99.90      -99.90      -99.90      -99.90      -99.90      -99.90      -99.90      -99.90      -99.90    
  15   -99.90      -99.90      -99.90      -99.90      -99.90      -99.90      -99.90      -99.90      -99.90      -99.90    
       -99.90      -99.90      -99.90      -99.90      -99.90      -99.90      -99.90      -99.90      -99.90      -99.90    
       -99.90      -99.90      -99.90      -99.90      -99.90      -99.90      -99.90      -99.90      -99.90      -99.90    
       -99.90      -99.90      -99.90      -99.90      -99.90      -99.90      -99.90      -99.90      -99.90      -99.90    
  16   -99.90      -99.90      -99.90      -99.90      -99.90      -99.90      -99.90      -99.90      -99.90      -99.90    
       -99.90      -99.90      -99.90      -99.90      -99.90      -99.90      -99.90      -99.90      -99.90      -99.90    
       -99.90      -99.90      -99.90      -99.90      -99.90      -99.90      -99.90      -99.90      -99.90      -99.90    
       -99.90      -99.90      -99.90      -99.90      -99.90      -99.90      -99.90      -99.90      -99.90      -99.90    
  17   -99.90      -99.90      -99.90      -99.90      -99.90      -99.90      -99.90      -99.90      -99.90      -99.90    
       -99.90      -99.90      -99.90      -99.90      -99.90      -99.90      -99.90      -99.90      -99.90      -99.90    
       -99.90      -99.90      -99.90      -99.90      -99.90      -99.90      -99.90      -99.90      -99.90      -99.90    
       -99.90      -99.90      -99.90      -99.90      -99.90      -99.90      -99.90      -99.90      -99.90      -99.90    
  18   -99.90      -99.90      -99.90      -99.90      -99.90      -99.90      -99.90      -99.90      -99.90      -99.90    
       -99.90      -99.90      -99.90      -99.90      -99.90      -99.90      -99.90      -99.90      -99.90      -99.90    
       -99.90      -99.90      -99.90      -99.90      -99.90      -99.90      -99.90      -99.90      -99.90      -99.90    
       -99.90      -99.90      -99.90      -99.90      -99.90      -99.90      -99.90      -99.90      -99.90      -99.90    
  19   -99.90      -99.90      -99.90      -99.90      -99.90      -99.90      -99.90      -99.90      -99.90      -99.90    
       -99.90      -99.90      -99.90      -99.90      -99.90      -99.90      -99.90      -99.90      -99.90      -99.90    
       -99.90      -99.90      -99.90      -99.90      -99.90      -99.90      -99.90      -99.90      -99.90      -99.90    
       -99.90      -99.90      -99.90      -99.90      -99.90      -99.90      -99.90      -99.90      -99.90      -99.90    
  20   -99.90      -99.90      -99.90      -99.90      -99.90      -99.90      -99.90      -99.90      -99.90      -99.90    
       -99.90      -99.90      -99.90      -99.90      -99.90      -99.90      -99.90      -99.90      -99.90      -99.90    
       -99.90      -99.90      -99.90      -99.90      -99.90      -99.90      -99.90      -99.90      -99.90      -99.90    
       -99.90      -99.90      -99.90      -99.90      -99.90      -99.90      -99.90      -99.90      -99.90      -99.90    
  21   -99.90      -99.90      -99.90      -99.90      -99.90      -99.90      -99.90      -99.90      -99.90      -99.90    
       -99.90      -99.90      -99.90      -99.90      -99.90      -99.90      -99.90      -99.90      -99.90      -99.90    
       -99.90      -99.90      -99.90      -99.90      -99.90      -99.90      -99.90      -99.90      -99.90      -99.90    
       -99.90      -99.90      -99.90      -99.90      -99.90      -99.90      -99.90      -99.90      -99.90      -99.90    
  22   -99.90      -99.90      -99.90      -99.90      -99.90      -99.90      -99.90      -99.90      -99.90      -99.90    
       -99.90      -99.90      -99.90      -99.90      -99.90      -99.90      -99.90      -99.90      -99.90      -99.90    
       -99.90      -99.90      -99.90      -99.90      -99.90      -99.90      -99.90      -99.90      -99.90      -99.90    
       -99.90      -99.90      -99.90      -99.90      -99.90      -99.90      -99.90      -99.90      -99.90      -99.90    
  23   -99.90      -99.90      -99.90      -99.90      -99.90      -99.90      -99.90      -99.90      -99.90      -99.90    
       -99.90      -99.90      -99.90      -99.90      -99.90      -99.90      -99.90      -99.90      -99.90      -99.90    
       -99.90      -99.90      -99.90      -99.90      -99.90      -99.90      -99.90      -99.90      -99.90      -99.90    
       -99.90      -99.90      -99.90      -99.90      -99.90      -99.90      -99.90      -99.90      -99.90      -99.90    
  24   -99.90      -99.90      -99.90      -99.90      -99.90      -99.90      -99.90      -99.90      -99.90      -99.90    
       -99.90      -99.90      -99.90      -99.90      -99.90      -99.90      -99.90      -99.90      -99.90      -99.90    
       -99.90      -99.90      -99.90      -99.90      -99.90      -99.90      -99.90      -99.90      -99.90      -99.90    
       -99.90      -99.90      -99.90      -99.90      -99.90      -99.90      -99.90      -99.90      -99.90      -99.90    
  25   -99.90      -99.90      -99.90      -99.90      -99.90      -99.90      -99.90      -99.90      -99.90      -99.90    
       -99.90      -99.90      -99.90      -99.90      -99.90      -99.90      -99.90      -99.90      -99.90      -99.90    
       -99.90      -99.90      -99.90      -99.90      -99.90      -99.90      -99.90      -99.90      -99.90      -99.90    
       -99.90      -99.90      -99.90      -99.90      -99.90      -99.90      -99.90      -99.90      -99.90      -99.90    
  26   -99.90      -99.90      -99.90      -99.90      -99.90      -99.90      -99.90      -99.90      -99.90      -99.90    
       -99.90      -99.90      -99.90      -99.90      -99.90      -99.90      -99.90      -99.90      -99.90      -99.90    
       -99.90      -99.90      -99.90      -99.90      -99.90      -99.90      -99.90      -99.90      -99.90      -99.90    
       -99.90      -99.90      -99.90      -99.90      -99.90      -99.90      -99.90      -99.90      -99.90      -99.90    
  27   -99.90      -99.90      -99.90      -99.90      -99.90      -99.90      -99.90      -99.90      -99.90      -99.90    
       -99.90      -99.90      -99.90      -99.90      -99.90      -99.90      -99.90      -99.90      -99.90      -99.90    
       -99.90      -99.90      -99.90      -99.90      -99.90      -99.90      -99.90      -99.90      -99.90      -99.90    
       -99.90      -99.90      -99.90      -99.90      -99.90      -99.90      -99.90      -99.90      -99.90      -99.90    
  28   -99.90      -99.90      -99.90      -99.90      -99.90      -99.90      -99.90      -99.90      -99.90      -99.90    
       -99.90      -99.90      -99.90      -99.90      -99.90      -99.90      -99.90      -99.90      -99.90      -99.90    
       -99.90      -99.90      -99.90      -99.90      -99.90      -99.90      -99.90      -99.90      -99.90      -99.90    
       -99.90      -99.90      -99.90      -99.90      -99.90      -99.90      -99.90      -99.90      -99.90      -99.90    
  29   -99.90      -99.90      -99.90      -99.90      -99.90      -99.90      -99.90      -99.90      -99.90      -99.90    
       -99.90      -99.90      -99.90      -99.90      -99.90      -99.90      -99.90      -99.90      -99.90      -99.90    
       -99.90      -99.90      -99.90      -99.90      -99.90      -99.90      -99.90      -99.90      -99.90      -99.90    
       -99.90      -99.90      -99.90      -99.90      -99.90      -99.90      -99.90      -99.90      -99.90      -99.90    
  30   -99.90      -99.90      -99.90      -99.90      -99.90      -99.90      -99.90      -99.90      -99.90      -99.90    
       -99.90      -99.90      -99.90      -99.90      -99.90      -99.90      -99.90      -99.90      -99.90      -99.90    
       -99.90      -99.90      -99.90      -99.90      -99.90      -99.90      -99.90      -99.90      -99.90      -99.90    
       -99.90      -99.90      -99.90      -99.90      -99.90      -99.90      -99.90      -99.90      -99.90      -99.90    
  31   -99.90      -99.90      -99.90      -99.90      -99.90      -99.90      -99.90      -99.90      -99.90      -99.90    
       -99.90      -99.90      -99.90      -99.90      -99.90      -99.90      -99.90      -99.90      -99.90      -99.90    
       -99.90      -99.90      -99.90      -99.90      -99.90      -99.90      -99.90      -99.90      -99.90      -99.90    
       -99.90      -99.90      -99.90      -99.90      -99.90      -99.90      -99.90      -99.90      -99.90      -99.90    
  32   -99.90      -99.90      -99.90      -99.90      -99.90      -99.90      -99.90      -99.90      -99.90      -99.90    
       -99.90      -99.90      -99.90      -99.90      -99.90      -99.90      -99.90      -99.90      -99.90      -99.90    
       -99.90      -99.90      -99.90      -99.90      -99.90      -99.90      -99.90      -99.90      -99.90      -99.90    
       -99.90      -99.90      -99.90      -99.90      -99.90      -99.90      -99.90      -99.90      -99.90      -99.90    
  33   -99.90      -99.90      -99.90      -99.90      -99.90      -99.90      -99.90      -99.90      -99.90      -99.90    
       -99.90      -99.90      -99.90      -99.90      -99.90      -99.90      -99.90      -99.90      -99.90      -99.90    
       -99.90      -99.90      -99.90      -99.90      -99.90      -99.90      -99.90      -99.90      -99.90      -99.90    
       -99.90      -99.90      -99.90      -99.90      -99.90      -99.90      -99.90      -99.90      -99.90      -99.90    
  34   -99.90      -99.90      -99.90      -99.90      -99.90      -99.90      -99.90      -99.90      -99.90      -99.90    
       -99.90      -99.90      -99.90      -99.90      -99.90      -99.90      -99.90      -99.90      -99.90      -99.90    
       -99.90      -99.90      -99.90      -99.90      -99.90      -99.90      -99.90      -99.90      -99.90      -99.90    
       -99.90      -99.90      -99.90      -99.90      -99.90      -99.90      -99.90      -99.90      -99.90      -99.90    
  35   -99.90      -99.90      -99.90      -99.90      -99.90      -99.90      -99.90      -99.90      -99.90      -99.90    
       -99.90      -99.90      -99.90      -99.90      -99.90      -99.90      -99.90      -99.90      -99.90      -99.90    
       -99.90      -99.90      -99.90      -99.90      -99.90      -99.90      -99.90      -99.90      -99.90      -99.90    
       -99.90      -99.90      -99.90      -99.90      -99.90      -99.90      -99.90      -99.90      -99.90      -99.90    
  36   -99.90      -99.90      -99.90      -99.90      -99.90      -99.90      -99.90      -99.90      -99.90      -99.90    
       -99.90      -99.90      -99.90      -99.90      -99.90      -99.90      -99.90      -99.90      -99.90      -99.90    
       -99.90      -99.90      -99.90      -99.90      -99.90      -99.90      -99.90      -99.90      -99.90      -99.90    
       -99.90      -99.90      -99.90      -99.90      -99.90      -99.90      -99.90      -99.90      -99.90      -99.90    
  37   -99.90      -99.90      -99.90      -99.90      -99.90      -99.90      -99.90      -99.90      -99.90      -99.90    
       -99.90      -99.90      -99.90      -99.90      -99.90      -99.90      -99.90      -99.90      -99.90      -99.90    
       -99.90      -99.90      -99.90      -99.90      -99.90      -99.90      -99.90      -99.90      -99.90      -99.90    
       -99.90      -99.90      -99.90      -99.90      -99.90      -99.90      -99.90      -99.90      -99.90      -99.90    
  38   -99.90      -99.90      -99.90      -99.90      -99.90      -99.90      -99.90      -99.90      -99.90      -99.90    
       -99.90      -99.90      -99.90      -99.90      -99.90      -99.90      -99.90      -99.90      -99.90      -99.90    
       -99.90      -99.90      -99.90      -99.90      -99.90      -99.90      -99.90      -99.90      -99.90      -99.90    
       -99.90      -99.90      -99.90      -99.90      -99.90      -99.90      -99.90      -99.90      -99.90      -99.90    
  39   -99.90      -99.90      -99.90      -99.90      -99.90      -99.90      -99.90      -99.90      -99.90      -99.90    
       -99.90      -99.90      -99.90      -99.90      -99.90      -99.90      -99.90      -99.90      -99.90      -99.90    
       -99.90      -99.90      -99.90      -99.90      -99.90      -99.90      -99.90      -99.90      -99.90      -99.90    
       -99.90      -99.90      -99.90      -99.90      -99.90      -99.90      -99.90      -99.90      -99.90      -99.90    
  40   -99.90      -99.90      -99.90      -99.90      -99.90      -99.90      -99.90      -99.90      -99.90      -99.90    
       -99.90      -99.90      -99.90      -99.90      -99.90      -99.90      -99.90      -99.90      -99.90      -99.90    
       -99.90      -99.90      -99.90      -99.90      -99.90      -99.90      -99.90      -99.90      -99.90      -99.90    
       -99.90      -99.90      -99.90      -99.90      -99.90      -99.90      -99.90      -99.90      -99.90      -99.90    
1
              HEAD IN LAYER   6 AT END OF TIME STEP   1 IN STRESS PERIOD    1
  ---------------------------------------------------------------------------

            1           2           3           4           5           6           7           8           9          10
           11          12          13          14          15          16          17          18          19          20
           21          22          23          24          25          26          27          28          29          30
           31          32          33          34          35          36          37          38          39          40
 ........................................................................................................................
   1   -99.90      -99.90      -99.90      -99.90      -99.90      -99.90      -99.90      -99.90      -99.90      -99.90    
       -99.90      -99.90      -99.90      -99.90      -99.90      -99.90      -99.90      -99.90      -99.90      -99.90    
       -99.90      -99.90      -99.90      -99.90      -99.90      -99.90      -99.90      -99.90      -99.90      -99.90    
       -99.90      -99.90      -99.90      -99.90      -99.90      -99.90      -99.90      -99.90      -99.90      -99.90    
   2   -99.90      -99.90      -99.90      -99.90      -99.90      -99.90      -99.90      -99.90      -99.90      -99.90    
       -99.90      -99.90      -99.90      -99.90      -99.90      -99.90      -99.90      -99.90      -99.90      -99.90    
       -99.90      -99.90      -99.90      -99.90      -99.90      -99.90      -99.90      -99.90      -99.90      -99.90    
       -99.90      -99.90      -99.90      -99.90      -99.90      -99.90      -99.90      -99.90      -99.90      -99.90    
   3   -99.90      -99.90      -99.90      -99.90      -99.90      -99.90      -99.90      -99.90      -99.90      -99.90    
       -99.90      -99.90      -99.90      -99.90      -99.90      -99.90      -99.90      -99.90      -99.90      -99.90    
       -99.90      -99.90      -99.90      -99.90      -99.90      -99.90      -99.90      -99.90      -99.90      -99.90    
       -99.90      -99.90      -99.90      -99.90      -99.90      -99.90      -99.90      -99.90      -99.90      -99.90    
   4   -99.90      -99.90      -99.90      -99.90      -99.90      -99.90      -99.90      -99.90      -99.90      -99.90    
       -99.90      -99.90      -99.90      -99.90      -99.90      -99.90      -99.90      -99.90      -99.90      -99.90    
       -99.90      -99.90      -99.90      -99.90      -99.90      -99.90      -99.90      -99.90      -99.90      -99.90    
       -99.90      -99.90      -99.90      -99.90      -99.90      -99.90      -99.90      -99.90      -99.90      -99.90    
   5   -99.90      -99.90      -99.90      -99.90      -99.90      -99.90      -99.90      -99.90      -99.90      -99.90    
       -99.90      -99.90      -99.90      -99.90      -99.90      -99.90      -99.90      -99.90      -99.90      -99.90    
       -99.90      -99.90      -99.90      -99.90      -99.90      -99.90      -99.90      -99.90      -99.90      -99.90    
       -99.90      -99.90      -99.90      -99.90      -99.90      -99.90      -99.90      -99.90      -99.90      -99.90    
   6   -99.90      -99.90      -99.90      -99.90      -99.90      -99.90      -99.90      -99.90      -99.90      -99.90    
       -99.90      -99.90      -99.90      -99.90      -99.90      -99.90      -99.90      -99.90      -99.90      -99.90    
       -99.90      -99.90      -99.90      -99.90      -99.90      -99.90      -99.90      -99.90      -99.90      -99.90    
       -99.90      -99.90      -99.90      -99.90      -99.90      -99.90      -99.90      -99.90      -99.90      -99.90    
   7   -99.90      -99.90      -99.90      -99.90      -99.90      -99.90      -99.90      -99.90      -99.90      -99.90    
       -99.90      -99.90      -99.90      -99.90      -99.90      -99.90      -99.90      -99.90      -99.90      -99.90    
       -99.90      -99.90      -99.90      -99.90      -99.90      -99.90      -99.90      -99.90      -99.90      -99.90    
       -99.90      -99.90      -99.90      -99.90      -99.90      -99.90      -99.90      -99.90      -99.90      -99.90    
   8   -99.90      -99.90      -99.90      -99.90      -99.90      -99.90      -99.90      -99.90      -99.90      -99.90    
       -99.90      -99.90      -99.90      -99.90      -99.90      -99.90      -99.90      -99.90      -99.90      -99.90    
       -99.90      -99.90      -99.90      -99.90      -99.90      -99.90      -99.90      -99.90      -99.90      -99.90    
       -99.90      -99.90      -99.90      -99.90      -99.90      -99.90      -99.90      -99.90      -99.90      -99.90    
   9   -99.90      -99.90      -99.90      -99.90      -99.90      -99.90      -99.90      -99.90      -99.90      -99.90    
       -99.90      -99.90      -99.90      -99.90      -99.90      -99.90      -99.90      -99.90      -99.90      -99.90    
       -99.90      -99.90      -99.90      -99.90      -99.90      -99.90      -99.90      -99.90      -99.90      -99.90    
       -99.90      -99.90      -99.90      -99.90      -99.90      -99.90      -99.90      -99.90      -99.90      -99.90    
  10   -99.90      -99.90      -99.90      -99.90      -99.90      -99.90      -99.90      -99.90      -99.90      -99.90    
       -99.90      -99.90      -99.90      -99.90      -99.90      -99.90      -99.90      -99.90      -99.90      -99.90    
       -99.90      -99.90      -99.90      -99.90      -99.90      -99.90      -99.90      -99.90      -99.90      -99.90    
       -99.90      -99.90      -99.90      -99.90      -99.90      -99.90      -99.90      -99.90      -99.90      -99.90    
  11   -99.90      -99.90      -99.90      -99.90      -99.90      -99.90      -99.90      -99.90      -99.90      -99.90    
       -99.90      -99.90      -99.90      -99.90      -99.90      -99.90      -99.90      -99.90      -99.90      -99.90    
       -99.90      -99.90      -99.90      -99.90      -99.90      -99.90      -99.90      -99.90      -99.90      -99.90    
       -99.90      -99.90      -99.90      -99.90      -99.90      -99.90      -99.90      -99.90      -99.90      -99.90    
  12   -99.90      -99.90      -99.90      -99.90      -99.90      -99.90      -99.90      -99.90      -99.90      -99.90    
       -99.90      -99.90      -99.90      -99.90      -99.90      -99.90      -99.90      -99.90      -99.90      -99.90    
       -99.90      -99.90      -99.90      -99.90      -99.90      -99.90      -99.90      -99.90      -99.90      -99.90    
       -99.90      -99.90      -99.90      -99.90      -99.90      -99.90      -99.90      -99.90      -99.90      -99.90    
  13   -99.90      -99.90      -99.90      -99.90      -99.90      -99.90      -99.90      -99.90      -99.90      -99.90    
       -99.90      -99.90      -99.90      -99.90      -99.90      -99.90      -99.90      -99.90      -99.90      -99.90    
       -99.90      -99.90      -99.90      -99.90      -99.90      -99.90      -99.90      -99.90      -99.90      -99.90    
       -99.90      -99.90      -99.90      -99.90      -99.90      -99.90      -99.90      -99.90      -99.90      -99.90    
  14   -99.90      -99.90      -99.90      -99.90      -99.90      -99.90      -99.90      -99.90      -99.90      -99.90    
       -99.90      -99.90      -99.90      -99.90      -99.90      -99.90      -99.90      -99.90      -99.90      -99.90    
       -99.90      -99.90      -99.90      -99.90      -99.90      -99.90      -99.90      -99.90      -99.90      -99.90    
       -99.90      -99.90      -99.90      -99.90      -99.90      -99.90      -99.90      -99.90      -99.90      -99.90    
  15   -99.90      -99.90      -99.90      -99.90      -99.90      -99.90      -99.90      -99.90      -99.90      -99.90    
       -99.90      -99.90      -99.90      -99.90      -99.90      -99.90      -99.90      -99.90      -99.90      -99.90    
       -99.90      -99.90      -99.90      -99.90      -99.90      -99.90      -99.90      -99.90      -99.90      -99.90    
       -99.90      -99.90      -99.90      -99.90      -99.90      -99.90      -99.90      -99.90      -99.90      -99.90    
  16   -99.90      -99.90      -99.90      -99.90      -99.90      -99.90      -99.90      -99.90      -99.90      -99.90    
       -99.90      -99.90      -99.90      -99.90      -99.90      -99.90      -99.90      -99.90      -99.90      -99.90    
       -99.90      -99.90      -99.90      -99.90      -99.90      -99.90      -99.90      -99.90      -99.90      -99.90    
       -99.90      -99.90      -99.90      -99.90      -99.90      -99.90      -99.90      -99.90      -99.90      -99.90    
  17   -99.90      -99.90      -99.90      -99.90      -99.90      -99.90      -99.90      -99.90      -99.90      -99.90    
       -99.90      -99.90      -99.90      -99.90      -99.90      -99.90      -99.90      -99.90      -99.90      -99.90    
       -99.90      -99.90      -99.90      -99.90      -99.90      -99.90      -99.90      -99.90      -99.90      -99.90    
       -99.90      -99.90      -99.90      -99.90      -99.90      -99.90      -99.90      -99.90      -99.90      -99.90    
  18   -99.90      -99.90      -99.90      -99.90      -99.90      -99.90      -99.90      -99.90      -99.90      -99.90    
       -99.90      -99.90      -99.90      -99.90      -99.90      -99.90      -99.90      -99.90      -99.90      -99.90    
       -99.90      -99.90      -99.90      -99.90      -99.90      -99.90      -99.90      -99.90      -99.90      -99.90    
       -99.90      -99.90      -99.90      -99.90      -99.90      -99.90      -99.90      -99.90      -99.90      -99.90    
  19   -99.90      -99.90      -99.90      -99.90      -99.90      -99.90      -99.90      -99.90      -99.90      -99.90    
       -99.90      -99.90      -99.90      -99.90      -99.90      -99.90      -99.90      -99.90      -99.90      -99.90    
       -99.90      -99.90      -99.90      -99.90      -99.90      -99.90      -99.90      -99.90      -99.90      -99.90    
       -99.90      -99.90      -99.90      -99.90      -99.90      -99.90      -99.90      -99.90      -99.90      -99.90    
  20   -99.90      -99.90      -99.90      -99.90      -99.90      -99.90      -99.90      -99.90      -99.90      -99.90    
       -99.90      -99.90      -99.90      -99.90      -99.90      -99.90      -99.90      -99.90      -99.90      -99.90    
       -99.90      -99.90      -99.90      -99.90      -99.90      -99.90      -99.90      -99.90      -99.90      -99.90    
       -99.90      -99.90      -99.90      -99.90      -99.90      -99.90      -99.90      -99.90      -99.90      -99.90    
  21   -99.90      -99.90      -99.90      -99.90      -99.90      -99.90      -99.90      -99.90      -99.90      -99.90    
       -99.90      -99.90      -99.90      -99.90      -99.90      -99.90      -99.90      -99.90      -99.90      -99.90    
       -99.90      -99.90      -99.90      -99.90      -99.90      -99.90      -99.90      -99.90      -99.90      -99.90    
       -99.90      -99.90      -99.90      -99.90      -99.90      -99.90      -99.90      -99.90      -99.90      -99.90    
  22   -99.90      -99.90      -99.90      -99.90      -99.90      -99.90      -99.90      -99.90      -99.90      -99.90    
       -99.90      -99.90      -99.90      -99.90      -99.90      -99.90      -99.90      -99.90      -99.90      -99.90    
       -99.90      -99.90      -99.90      -99.90      -99.90      -99.90      -99.90      -99.90      -99.90      -99.90    
       -99.90      -99.90      -99.90      -99.90      -99.90      -99.90      -99.90      -99.90      -99.90      -99.90    
  23   -99.90      -99.90      -99.90      -99.90      -99.90      -99.90      -99.90      -99.90      -99.90      -99.90    
       -99.90      -99.90      -99.90      -99.90      -99.90      -99.90      -99.90      -99.90      -99.90      -99.90    
       -99.90      -99.90      -99.90      -99.90      -99.90      -99.90      -99.90      -99.90      -99.90      -99.90    
       -99.90      -99.90      -99.90      -99.90      -99.90      -99.90      -99.90      -99.90      -99.90      -99.90    
  24   -99.90      -99.90      -99.90      -99.90      -99.90      -99.90      -99.90      -99.90      -99.90      -99.90    
       -99.90      -99.90      -99.90      -99.90      -99.90      -99.90      -99.90      -99.90      -99.90      -99.90    
       -99.90      -99.90      -99.90      -99.90      -99.90      -99.90      -99.90      -99.90      -99.90      -99.90    
       -99.90      -99.90      -99.90      -99.90      -99.90      -99.90      -99.90      -99.90      -99.90      -99.90    
  25   -99.90      -99.90      -99.90      -99.90      -99.90      -99.90      -99.90      -99.90      -99.90      -99.90    
       -99.90      -99.90      -99.90      -99.90      -99.90      -99.90      -99.90      -99.90      -99.90      -99.90    
       -99.90      -99.90      -99.90      -99.90      -99.90      -99.90      -99.90      -99.90      -99.90      -99.90    
       -99.90      -99.90      -99.90      -99.90      -99.90      -99.90      -99.90      -99.90      -99.90      -99.90    
  26   -99.90      -99.90      -99.90      -99.90      -99.90      -99.90      -99.90      -99.90      -99.90      -99.90    
       -99.90      -99.90      -99.90      -99.90      -99.90      -99.90      -99.90      -99.90      -99.90      -99.90    
       -99.90      -99.90      -99.90      -99.90      -99.90      -99.90      -99.90      -99.90      -99.90      -99.90    
       -99.90      -99.90      -99.90      -99.90      -99.90      -99.90      -99.90      -99.90      -99.90      -99.90    
  27   -99.90      -99.90      -99.90      -99.90      -99.90      -99.90      -99.90      -99.90      -99.90      -99.90    
       -99.90      -99.90      -99.90      -99.90      -99.90      -99.90      -99.90      -99.90      -99.90      -99.90    
       -99.90      -99.90      -99.90      -99.90      -99.90      -99.90      -99.90      -99.90      -99.90      -99.90    
       -99.90      -99.90      -99.90      -99.90      -99.90      -99.90      -99.90      -99.90      -99.90      -99.90    
  28   -99.90      -99.90      -99.90      -99.90      -99.90      -99.90      -99.90      -99.90      -99.90      -99.90    
       -99.90      -99.90      -99.90      -99.90      -99.90      -99.90      -99.90      -99.90      -99.90      -99.90    
       -99.90      -99.90      -99.90      -99.90      -99.90      -99.90      -99.90      -99.90      -99.90      -99.90    
       -99.90      -99.90      -99.90      -99.90      -99.90      -99.90      -99.90      -99.90      -99.90      -99.90    
  29   -99.90      -99.90      -99.90      -99.90      -99.90      -99.90      -99.90      -99.90      -99.90      -99.90    
       -99.90      -99.90      -99.90      -99.90      -99.90      -99.90      -99.90      -99.90      -99.90      -99.90    
       -99.90      -99.90      -99.90      -99.90      -99.90      -99.90      -99.90      -99.90      -99.90      -99.90    
       -99.90      -99.90      -99.90      -99.90      -99.90      -99.90      -99.90      -99.90      -99.90      -99.90    
  30   -99.90      -99.90      -99.90      -99.90      -99.90      -99.90      -99.90      -99.90      -99.90      -99.90    
       -99.90      -99.90      -99.90      -99.90      -99.90      -99.90      -99.90      -99.90      -99.90      -99.90    
       -99.90      -99.90      -99.90      -99.90      -99.90      -99.90      -99.90      -99.90      -99.90      -99.90    
       -99.90      -99.90      -99.90      -99.90      -99.90      -99.90      -99.90      -99.90      -99.90      -99.90    
  31   -99.90      -99.90      -99.90      -99.90      -99.90      -99.90      -99.90      -99.90      -99.90      -99.90    
       -99.90      -99.90      -99.90      -99.90      -99.90      -99.90      -99.90      -99.90      -99.90      -99.90    
       -99.90      -99.90      -99.90      -99.90      -99.90      -99.90      -99.90      -99.90      -99.90      -99.90    
       -99.90      -99.90      -99.90      -99.90      -99.90      -99.90      -99.90      -99.90      -99.90      -99.90    
  32   -99.90      -99.90      -99.90      -99.90      -99.90      -99.90      -99.90      -99.90      -99.90      -99.90    
       -99.90      -99.90      -99.90      -99.90      -99.90      -99.90      -99.90      -99.90      -99.90      -99.90    
       -99.90      -99.90      -99.90      -99.90      -99.90      -99.90      -99.90      -99.90      -99.90      -99.90    
       -99.90      -99.90      -99.90      -99.90      -99.90      -99.90      -99.90      -99.90      -99.90      -99.90    
  33   -99.90      -99.90      -99.90      -99.90      -99.90      -99.90      -99.90      -99.90      -99.90      -99.90    
       -99.90      -99.90      -99.90      -99.90      -99.90      -99.90      -99.90      -99.90      -99.90      -99.90    
       -99.90      -99.90      -99.90      -99.90      -99.90      -99.90      -99.90      -99.90      -99.90      -99.90    
       -99.90      -99.90      -99.90      -99.90      -99.90      -99.90      -99.90      -99.90      -99.90      -99.90    
  34   -99.90      -99.90      -99.90      -99.90      -99.90      -99.90      -99.90      -99.90      -99.90      -99.90    
       -99.90      -99.90      -99.90      -99.90      -99.90      -99.90      -99.90      -99.90      -99.90      -99.90    
       -99.90      -99.90      -99.90      -99.90      -99.90      -99.90      -99.90      -99.90      -99.90      -99.90    
       -99.90      -99.90      -99.90      -99.90      -99.90      -99.90      -99.90      -99.90      -99.90      -99.90    
  35   -99.90      -99.90      -99.90      -99.90      -99.90      -99.90      -99.90      -99.90      -99.90      -99.90    
       -99.90      -99.90      -99.90      -99.90      -99.90      -99.90      -99.90      -99.90      -99.90      -99.90    
       -99.90      -99.90      -99.90      -99.90      -99.90      -99.90      -99.90      -99.90      -99.90      -99.90    
       -99.90      -99.90      -99.90      -99.90      -99.90      -99.90      -99.90      -99.90      -99.90      -99.90    
  36   -99.90      -99.90      -99.90      -99.90      -99.90      -99.90      -99.90      -99.90      -99.90      -99.90    
       -99.90      -99.90      -99.90      -99.90      -99.90      -99.90      -99.90      -99.90      -99.90      -99.90    
       -99.90      -99.90      -99.90      -99.90      -99.90      -99.90      -99.90      -99.90      -99.90      -99.90    
       -99.90      -99.90      -99.90      -99.90      -99.90      -99.90      -99.90      -99.90      -99.90      -99.90    
  37   -99.90      -99.90      -99.90      -99.90      -99.90      -99.90      -99.90      -99.90      -99.90      -99.90    
       -99.90      -99.90      -99.90      -99.90      -99.90      -99.90      -99.90      -99.90      -99.90      -99.90    
       -99.90      -99.90      -99.90      -99.90      -99.90      -99.90      -99.90      -99.90      -99.90      -99.90    
       -99.90      -99.90      -99.90      -99.90      -99.90      -99.90      -99.90      -99.90      -99.90      -99.90    
  38   -99.90      -99.90      -99.90      -99.90      -99.90      -99.90      -99.90      -99.90      -99.90      -99.90    
       -99.90      -99.90      -99.90      -99.90      -99.90      -99.90      -99.90      -99.90      -99.90      -99.90    
       -99.90      -99.90      -99.90      -99.90      -99.90      -99.90      -99.90      -99.90      -99.90      -99.90    
       -99.90      -99.90      -99.90      -99.90      -99.90      -99.90      -99.90      -99.90      -99.90      -99.90    
  39   -99.90      -99.90      -99.90      -99.90      -99.90      -99.90      -99.90      -99.90      -99.90      -99.90    
       -99.90      -99.90      -99.90      -99.90      -99.90      -99.90      -99.90      -99.90      -99.90      -99.90    
       -99.90      -99.90      -99.90      -99.90      -99.90      -99.90      -99.90      -99.90      -99.90      -99.90    
       -99.90      -99.90      -99.90      -99.90      -99.90      -99.90      -99.90      -99.90      -99.90      -99.90    
  40   -99.90      -99.90      -99.90      -99.90      -99.90      -99.90      -99.90      -99.90      -99.90      -99.90    
       -99.90      -99.90      -99.90      -99.90      -99.90      -99.90      -99.90      -99.90      -99.90      -99.90    
       -99.90      -99.90      -99.90      -99.90      -99.90      -99.90      -99.90      -99.90      -99.90      -99.90    
       -99.90      -99.90      -99.90      -99.90      -99.90      -99.90      -99.90      -99.90      -99.90      -99.90    
1
              HEAD IN LAYER   7 AT END OF TIME STEP   1 IN STRESS PERIOD    1
  ---------------------------------------------------------------------------

            1           2           3           4           5           6           7           8           9          10
           11          12          13          14          15          16          17          18          19          20
           21          22          23          24          25          26          27          28          29          30
           31          32          33          34          35          36          37          38          39          40
 ........................................................................................................................
   1   -99.90      -99.90      -99.90      -99.90      -99.90      -99.90      -99.90      -99.90      -99.90      -99.90    
       -99.90      -99.90      -99.90      -99.90      -99.90      -99.90      -99.90      -99.90      -99.90      -99.90    
       -99.90      -99.90      -99.90      -99.90      -99.90      -99.90      -99.90      -99.90      -99.90      -99.90    
       -99.90      -99.90      -99.90      -99.90      -99.90      -99.90      -99.90      -99.90      -99.90      -99.90    
   2   -99.90      -99.90      -99.90      -99.90      -99.90      -99.90      -99.90      -99.90      -99.90      -99.90    
       -99.90      -99.90      -99.90      -99.90      -99.90      -99.90      -99.90      -99.90      -99.90      -99.90    
       -99.90      -99.90      -99.90      -99.90      -99.90      -99.90      -99.90      -99.90      -99.90      -99.90    
       -99.90      -99.90      -99.90      -99.90      -99.90      -99.90      -99.90      -99.90      -99.90      -99.90    
   3   -99.90      -99.90      -99.90      -99.90      -99.90      -99.90      -99.90      -99.90      -99.90      -99.90    
       -99.90      -99.90      -99.90      -99.90      -99.90      -99.90      -99.90      -99.90      -99.90      -99.90    
       -99.90      -99.90      -99.90      -99.90      -99.90      -99.90      -99.90      -99.90      -99.90      -99.90    
       -99.90      -99.90      -99.90      -99.90      -99.90      -99.90      -99.90      -99.90      -99.90      -99.90    
   4   -99.90      -99.90      -99.90      -99.90      -99.90      -99.90      -99.90      -99.90      -99.90      -99.90    
       -99.90      -99.90      -99.90      -99.90      -99.90      -99.90      -99.90      -99.90      -99.90      -99.90    
       -99.90      -99.90      -99.90      -99.90      -99.90      -99.90      -99.90      -99.90      -99.90      -99.90    
       -99.90      -99.90      -99.90      -99.90      -99.90      -99.90      -99.90      -99.90      -99.90      -99.90    
   5   -99.90      -99.90      -99.90      -99.90      -99.90      -99.90      -99.90      -99.90      -99.90      -99.90    
       -99.90      -99.90      -99.90      -99.90      -99.90      -99.90      -99.90      -99.90      -99.90      -99.90    
       -99.90      -99.90      -99.90      -99.90      -99.90      -99.90      -99.90      -99.90      -99.90      -99.90    
       -99.90      -99.90      -99.90      -99.90      -99.90      -99.90      -99.90      -99.90      -99.90      -99.90    
   6   -99.90      -99.90      -99.90      -99.90      -99.90      -99.90      -99.90      -99.90      -99.90      -99.90    
       -99.90      -99.90      -99.90      -99.90      -99.90      -99.90      -99.90      -99.90      -99.90      -99.90    
       -99.90      -99.90      -99.90      -99.90      -99.90      -99.90      -99.90      -99.90      -99.90      -99.90    
       -99.90      -99.90      -99.90      -99.90      -99.90      -99.90      -99.90      -99.90      -99.90      -99.90    
   7   -99.90      -99.90      -99.90      -99.90      -99.90      -99.90      -99.90      -99.90      -99.90      -99.90    
       -99.90      -99.90      -99.90      -99.90      -99.90      -99.90      -99.90      -99.90      -99.90      -99.90    
       -99.90      -99.90      -99.90      -99.90      -99.90      -99.90      -99.90      -99.90      -99.90      -99.90    
       -99.90      -99.90      -99.90      -99.90      -99.90      -99.90      -99.90      -99.90      -99.90      -99.90    
   8   -99.90      -99.90      -99.90      -99.90      -99.90      -99.90      -99.90      -99.90      -99.90      -99.90    
       -99.90      -99.90      -99.90      -99.90      -99.90      -99.90      -99.90      -99.90      -99.90      -99.90    
       -99.90      -99.90      -99.90      -99.90      -99.90      -99.90      -99.90      -99.90      -99.90      -99.90    
       -99.90      -99.90      -99.90      -99.90      -99.90      -99.90      -99.90      -99.90      -99.90      -99.90    
   9   -99.90      -99.90      -99.90      -99.90      -99.90      -99.90      -99.90      -99.90      -99.90      -99.90    
       -99.90      -99.90      -99.90      -99.90      -99.90      -99.90      -99.90      -99.90      -99.90      -99.90    
       -99.90      -99.90      -99.90      -99.90      -99.90      -99.90      -99.90      -99.90      -99.90      -99.90    
       -99.90      -99.90      -99.90      -99.90      -99.90      -99.90      -99.90      -99.90      -99.90      -99.90    
  10   -99.90      -99.90      -99.90      -99.90      -99.90      -99.90      -99.90      -99.90      -99.90      -99.90    
       -99.90      -99.90      -99.90      -99.90      -99.90      -99.90      -99.90      -99.90      -99.90      -99.90    
       -99.90      -99.90      -99.90      -99.90      -99.90      -99.90      -99.90      -99.90      -99.90      -99.90    
       -99.90      -99.90      -99.90      -99.90      -99.90      -99.90      -99.90      -99.90      -99.90      -99.90    
  11   -99.90      -99.90      -99.90      -99.90      -99.90      -99.90      -99.90      -99.90      -99.90      -99.90    
       -99.90      -99.90      -99.90      -99.90      -99.90      -99.90      -99.90      -99.90      -99.90      -99.90    
       -99.90      -99.90      -99.90      -99.90      -99.90      -99.90      -99.90      -99.90      -99.90      -99.90    
       -99.90      -99.90      -99.90      -99.90      -99.90      -99.90      -99.90      -99.90      -99.90      -99.90    
  12   -99.90      -99.90      -99.90      -99.90      -99.90      -99.90      -99.90      -99.90      -99.90      -99.90    
       -99.90      -99.90      -99.90      -99.90      -99.90      -99.90      -99.90      -99.90      -99.90      -99.90    
       -99.90      -99.90      -99.90      -99.90      -99.90      -99.90      -99.90      -99.90      -99.90      -99.90    
       -99.90      -99.90      -99.90      -99.90      -99.90      -99.90      -99.90      -99.90      -99.90      -99.90    
  13   -99.90      -99.90      -99.90      -99.90      -99.90      -99.90      -99.90      -99.90      -99.90      -99.90    
       -99.90      -99.90      -99.90      -99.90      -99.90      -99.90      -99.90      -99.90      -99.90      -99.90    
       -99.90      -99.90      -99.90      -99.90      -99.90      -99.90      -99.90      -99.90      -99.90      -99.90    
       -99.90      -99.90      -99.90      -99.90      -99.90      -99.90      -99.90      -99.90      -99.90      -99.90    
  14   -99.90      -99.90      -99.90      -99.90      -99.90      -99.90      -99.90      -99.90      -99.90      -99.90    
       -99.90      -99.90      -99.90      -99.90      -99.90      -99.90      -99.90      -99.90      -99.90      -99.90    
       -99.90      -99.90      -99.90      -99.90      -99.90      -99.90      -99.90      -99.90      -99.90      -99.90    
       -99.90      -99.90      -99.90      -99.90      -99.90      -99.90      -99.90      -99.90      -99.90      -99.90    
  15   -99.90      -99.90      -99.90      -99.90      -99.90      -99.90      -99.90      -99.90      -99.90      -99.90    
       -99.90      -99.90      -99.90      -99.90      -99.90      -99.90      -99.90      -99.90      -99.90      -99.90    
       -99.90      -99.90      -99.90      -99.90      -99.90      -99.90      -99.90      -99.90      -99.90      -99.90    
       -99.90      -99.90      -99.90      -99.90      -99.90      -99.90      -99.90      -99.90      -99.90      -99.90    
  16   -99.90      -99.90      -99.90      -99.90      -99.90      -99.90      -99.90      -99.90      -99.90      -99.90    
       -99.90      -99.90      -99.90      -99.90      -99.90      -99.90      -99.90      -99.90      -99.90      -99.90    
       -99.90      -99.90      -99.90      -99.90      -99.90      -99.90      -99.90      -99.90      -99.90      -99.90    
       -99.90      -99.90      -99.90      -99.90      -99.90      -99.90      -99.90      -99.90      -99.90      -99.90    
  17   -99.90      -99.90      -99.90      -99.90      -99.90      -99.90      -99.90      -99.90      -99.90      -99.90    
       -99.90      -99.90      -99.90      -99.90      -99.90      -99.90      -99.90      -99.90      -99.90      -99.90    
       -99.90      -99.90      -99.90      -99.90      -99.90      -99.90      -99.90      -99.90      -99.90      -99.90    
       -99.90      -99.90      -99.90      -99.90      -99.90      -99.90      -99.90      -99.90      -99.90      -99.90    
  18   -99.90      -99.90      -99.90      -99.90      -99.90      -99.90      -99.90      -99.90      -99.90      -99.90    
       -99.90      -99.90      -99.90      -99.90      -99.90      -99.90      -99.90      -99.90      -99.90      -99.90    
       -99.90      -99.90      -99.90      -99.90      -99.90      -99.90      -99.90      -99.90      -99.90      -99.90    
       -99.90      -99.90      -99.90      -99.90      -99.90      -99.90      -99.90      -99.90      -99.90      -99.90    
  19   -99.90      -99.90      -99.90      -99.90      -99.90      -99.90      -99.90      -99.90      -99.90      -99.90    
       -99.90      -99.90      -99.90      -99.90      -99.90      -99.90      -99.90      -99.90      -99.90      -99.90    
       -99.90      -99.90      -99.90      -99.90      -99.90      -99.90      -99.90      -99.90      -99.90      -99.90    
       -99.90      -99.90      -99.90      -99.90      -99.90      -99.90      -99.90      -99.90      -99.90      -99.90    
  20   -99.90      -99.90      -99.90      -99.90      -99.90      -99.90      -99.90      -99.90      -99.90      -99.90    
       -99.90      -99.90      -99.90      -99.90      -99.90      -99.90      -99.90      -99.90      -99.90      -99.90    
       -99.90      -99.90      -99.90      -99.90      -99.90      -99.90      -99.90      -99.90      -99.90      -99.90    
       -99.90      -99.90      -99.90      -99.90      -99.90      -99.90      -99.90      -99.90      -99.90      -99.90    
  21   -99.90      -99.90      -99.90      -99.90      -99.90      -99.90      -99.90      -99.90      -99.90      -99.90    
       -99.90      -99.90      -99.90      -99.90      -99.90      -99.90      -99.90      -99.90      -99.90      -99.90    
       -99.90      -99.90      -99.90      -99.90      -99.90      -99.90      -99.90      -99.90      -99.90      -99.90    
       -99.90      -99.90      -99.90      -99.90      -99.90      -99.90      -99.90      -99.90      -99.90      -99.90    
  22   -99.90      -99.90      -99.90      -99.90      -99.90      -99.90      -99.90      -99.90      -99.90      -99.90    
       -99.90      -99.90      -99.90      -99.90      -99.90      -99.90      -99.90      -99.90      -99.90      -99.90    
       -99.90      -99.90      -99.90      -99.90      -99.90      -99.90      -99.90      -99.90      -99.90      -99.90    
       -99.90      -99.90      -99.90      -99.90      -99.90      -99.90      -99.90      -99.90      -99.90      -99.90    
  23   -99.90      -99.90      -99.90      -99.90      -99.90      -99.90      -99.90      -99.90      -99.90      -99.90    
       -99.90      -99.90      -99.90      -99.90      -99.90      -99.90      -99.90      -99.90      -99.90      -99.90    
       -99.90      -99.90      -99.90      -99.90      -99.90      -99.90      -99.90      -99.90      -99.90      -99.90    
       -99.90      -99.90      -99.90      -99.90      -99.90      -99.90      -99.90      -99.90      -99.90      -99.90    
  24   -99.90      -99.90      -99.90      -99.90      -99.90      -99.90      -99.90      -99.90      -99.90      -99.90    
       -99.90      -99.90      -99.90      -99.90      -99.90      -99.90      -99.90      -99.90      -99.90      -99.90    
       -99.90      -99.90      -99.90      -99.90      -99.90      -99.90      -99.90      -99.90      -99.90      -99.90    
       -99.90      -99.90      -99.90      -99.90      -99.90      -99.90      -99.90      -99.90      -99.90      -99.90    
  25   -99.90      -99.90      -99.90      -99.90      -99.90      -99.90      -99.90      -99.90      -99.90      -99.90    
       -99.90      -99.90      -99.90      -99.90      -99.90      -99.90      -99.90      -99.90      -99.90      -99.90    
       -99.90      -99.90      -99.90      -99.90      -99.90      -99.90      -99.90      -99.90      -99.90      -99.90    
       -99.90      -99.90      -99.90      -99.90      -99.90      -99.90      -99.90      -99.90      -99.90      -99.90    
  26   -99.90      -99.90      -99.90      -99.90      -99.90      -99.90      -99.90      -99.90      -99.90      -99.90    
       -99.90      -99.90      -99.90      -99.90      -99.90      -99.90      -99.90      -99.90      -99.90      -99.90    
       -99.90      -99.90      -99.90      -99.90      -99.90      -99.90      -99.90      -99.90      -99.90      -99.90    
       -99.90      -99.90      -99.90      -99.90      -99.90      -99.90      -99.90      -99.90      -99.90      -99.90    
  27   -99.90      -99.90      -99.90      -99.90      -99.90      -99.90      -99.90      -99.90      -99.90      -99.90    
       -99.90      -99.90      -99.90      -99.90      -99.90      -99.90      -99.90      -99.90      -99.90      -99.90    
       -99.90      -99.90      -99.90      -99.90      -99.90      -99.90      -99.90      -99.90      -99.90      -99.90    
       -99.90      -99.90      -99.90      -99.90      -99.90      -99.90      -99.90      -99.90      -99.90      -99.90    
  28   -99.90      -99.90      -99.90      -99.90      -99.90      -99.90      -99.90      -99.90      -99.90      -99.90    
       -99.90      -99.90      -99.90      -99.90      -99.90      -99.90      -99.90      -99.90      -99.90      -99.90    
       -99.90      -99.90      -99.90      -99.90      -99.90      -99.90      -99.90      -99.90      -99.90      -99.90    
       -99.90      -99.90      -99.90      -99.90      -99.90      -99.90      -99.90      -99.90      -99.90      -99.90    
  29   -99.90      -99.90      -99.90      -99.90      -99.90      -99.90      -99.90      -99.90      -99.90      -99.90    
       -99.90      -99.90      -99.90      -99.90      -99.90      -99.90      -99.90      -99.90      -99.90      -99.90    
       -99.90      -99.90      -99.90      -99.90      -99.90      -99.90      -99.90      -99.90      -99.90      -99.90    
       -99.90      -99.90      -99.90      -99.90      -99.90      -99.90      -99.90      -99.90      -99.90      -99.90    
  30   -99.90      -99.90      -99.90      -99.90      -99.90      -99.90      -99.90      -99.90      -99.90      -99.90    
       -99.90      -99.90      -99.90      -99.90      -99.90      -99.90      -99.90      -99.90      -99.90      -99.90    
       -99.90      -99.90      -99.90      -99.90      -99.90      -99.90      -99.90      -99.90      -99.90      -99.90    
       -99.90      -99.90      -99.90      -99.90      -99.90      -99.90      -99.90      -99.90      -99.90      -99.90    
  31   -99.90      -99.90      -99.90      -99.90      -99.90      -99.90      -99.90      -99.90      -99.90      -99.90    
       -99.90      -99.90      -99.90      -99.90      -99.90      -99.90      -99.90      -99.90      -99.90      -99.90    
       -99.90      -99.90      -99.90      -99.90      -99.90      -99.90      -99.90      -99.90      -99.90      -99.90    
       -99.90      -99.90      -99.90      -99.90      -99.90      -99.90      -99.90      -99.90      -99.90      -99.90    
  32   -99.90      -99.90      -99.90      -99.90      -99.90      -99.90      -99.90      -99.90      -99.90      -99.90    
       -99.90      -99.90      -99.90      -99.90      -99.90      -99.90      -99.90      -99.90      -99.90      -99.90    
       -99.90      -99.90      -99.90      -99.90      -99.90      -99.90      -99.90      -99.90      -99.90      -99.90    
       -99.90      -99.90      -99.90      -99.90      -99.90      -99.90      -99.90      -99.90      -99.90      -99.90    
  33   -99.90      -99.90      -99.90      -99.90      -99.90      -99.90      -99.90      -99.90      -99.90      -99.90    
       -99.90      -99.90      -99.90      -99.90      -99.90      -99.90      -99.90      -99.90      -99.90      -99.90    
       -99.90      -99.90      -99.90      -99.90      -99.90      -99.90      -99.90      -99.90      -99.90      -99.90    
       -99.90      -99.90      -99.90      -99.90      -99.90      -99.90      -99.90      -99.90      -99.90      -99.90    
  34   -99.90      -99.90      -99.90      -99.90      -99.90      -99.90      -99.90      -99.90      -99.90      -99.90    
       -99.90      -99.90      -99.90      -99.90      -99.90      -99.90      -99.90      -99.90      -99.90      -99.90    
       -99.90      -99.90      -99.90      -99.90      -99.90      -99.90      -99.90      -99.90      -99.90      -99.90    
       -99.90      -99.90      -99.90      -99.90      -99.90      -99.90      -99.90      -99.90      -99.90      -99.90    
  35   -99.90      -99.90      -99.90      -99.90      -99.90      -99.90      -99.90      -99.90      -99.90      -99.90    
       -99.90      -99.90      -99.90      -99.90      -99.90      -99.90      -99.90      -99.90      -99.90      -99.90    
       -99.90      -99.90      -99.90      -99.90      -99.90      -99.90      -99.90      -99.90      -99.90      -99.90    
       -99.90      -99.90      -99.90      -99.90      -99.90      -99.90      -99.90      -99.90      -99.90      -99.90    
  36   -99.90      -99.90      -99.90      -99.90      -99.90      -99.90      -99.90      -99.90      -99.90      -99.90    
       -99.90      -99.90      -99.90      -99.90      -99.90      -99.90      -99.90      -99.90      -99.90      -99.90    
       -99.90      -99.90      -99.90      -99.90      -99.90      -99.90      -99.90      -99.90      -99.90      -99.90    
       -99.90      -99.90      -99.90      -99.90      -99.90      -99.90      -99.90      -99.90      -99.90      -99.90    
  37   -99.90      -99.90      -99.90      -99.90      -99.90      -99.90      -99.90      -99.90      -99.90      -99.90    
       -99.90      -99.90      -99.90      -99.90      -99.90      -99.90      -99.90      -99.90      -99.90      -99.90    
       -99.90      -99.90      -99.90      -99.90      -99.90      -99.90      -99.90      -99.90      -99.90      -99.90    
       -99.90      -99.90      -99.90      -99.90      -99.90      -99.90      -99.90      -99.90      -99.90      -99.90    
  38   -99.90      -99.90      -99.90      -99.90      -99.90      -99.90      -99.90      -99.90      -99.90      -99.90    
       -99.90      -99.90      -99.90      -99.90      -99.90      -99.90      -99.90      -99.90      -99.90      -99.90    
       -99.90      -99.90      -99.90      -99.90      -99.90      -99.90      -99.90      -99.90      -99.90      -99.90    
       -99.90      -99.90      -99.90      -99.90      -99.90      -99.90      -99.90      -99.90      -99.90      -99.90    
  39   -99.90      -99.90      -99.90      -99.90      -99.90      -99.90      -99.90      -99.90      -99.90      -99.90    
       -99.90      -99.90      -99.90      -99.90      -99.90      -99.90      -99.90      -99.90      -99.90      -99.90    
       -99.90      -99.90      -99.90      -99.90      -99.90      -99.90      -99.90      -99.90      -99.90      -99.90    
       -99.90      -99.90      -99.90      -99.90      -99.90      -99.90      -99.90      -99.90      -99.90      -99.90    
  40   -99.90      -99.90      -99.90      -99.90      -99.90      -99.90      -99.90      -99.90      -99.90      -99.90    
       -99.90      -99.90      -99.90      -99.90      -99.90      -99.90      -99.90      -99.90      -99.90      -99.90    
       -99.90      -99.90      -99.90      -99.90      -99.90      -99.90      -99.90      -99.90      -99.90      -99.90    
       -99.90      -99.90      -99.90      -99.90      -99.90      -99.90      -99.90      -99.90      -99.90      -99.90    
1
              HEAD IN LAYER   8 AT END OF TIME STEP   1 IN STRESS PERIOD    1
  ---------------------------------------------------------------------------

            1           2           3           4           5           6           7           8           9          10
           11          12          13          14          15          16          17          18          19          20
           21          22          23          24          25          26          27          28          29          30
           31          32          33          34          35          36          37          38          39          40
 ........................................................................................................................
   1   -99.90      -99.90      -99.90      -99.90      -99.90      -99.90      -99.90      -99.90      -99.90      -99.90    
       -99.90      -99.90      -99.90      -99.90      -99.90      -99.90      -99.90      -99.90      -99.90      -99.90    
       -99.90      -99.90      -99.90      -99.90      -99.90      -99.90      -99.90      -99.90      -99.90      -99.90    
       -99.90      -99.90      -99.90      -99.90      -99.90      -99.90      -99.90      -99.90      -99.90      -99.90    
   2   -99.90      -99.90      -99.90      -99.90      -99.90      -99.90      -99.90      -99.90      -99.90      -99.90    
       -99.90      -99.90      -99.90      -99.90      -99.90      -99.90      -99.90      -99.90      -99.90      -99.90    
       -99.90      -99.90      -99.90      -99.90      -99.90      -99.90      -99.90      -99.90      -99.90      -99.90    
       -99.90      -99.90      -99.90      -99.90      -99.90      -99.90      -99.90      -99.90      -99.90      -99.90    
   3   -99.90      -99.90      -99.90      -99.90      -99.90      -99.90      -99.90      -99.90      -99.90      -99.90    
       -99.90      -99.90      -99.90      -99.90      -99.90      -99.90      -99.90      -99.90      -99.90      -99.90    
       -99.90      -99.90      -99.90      -99.90      -99.90      -99.90      -99.90      -99.90      -99.90      -99.90    
       -99.90      -99.90      -99.90      -99.90      -99.90      -99.90      -99.90      -99.90      -99.90      -99.90    
   4   -99.90      -99.90      -99.90      -99.90      -99.90      -99.90      -99.90      -99.90      -99.90      -99.90    
       -99.90      -99.90      -99.90      -99.90      -99.90      -99.90      -99.90      -99.90      -99.90      -99.90    
       -99.90      -99.90      -99.90      -99.90      -99.90      -99.90      -99.90      -99.90      -99.90      -99.90    
       -99.90      -99.90      -99.90      -99.90      -99.90      -99.90      -99.90      -99.90      -99.90      -99.90    
   5   -99.90      -99.90      -99.90      -99.90      -99.90      -99.90      -99.90      -99.90      -99.90      -99.90    
       -99.90      -99.90      -99.90      -99.90      -99.90      -99.90      -99.90      -99.90      -99.90      -99.90    
       -99.90      -99.90      -99.90      -99.90      -99.90      -99.90      -99.90      -99.90      -99.90      -99.90    
       -99.90      -99.90      -99.90      -99.90      -99.90      -99.90      -99.90      -99.90      -99.90      -99.90    
   6   -99.90      -99.90      -99.90      -99.90      -99.90      -99.90      -99.90      -99.90      -99.90      -99.90    
       -99.90      -99.90      -99.90      -99.90      -99.90      -99.90      -99.90      -99.90      -99.90      -99.90    
       -99.90      -99.90      -99.90      -99.90      -99.90      -99.90      -99.90      -99.90      -99.90      -99.90    
       -99.90      -99.90      -99.90      -99.90      -99.90      -99.90      -99.90      -99.90      -99.90      -99.90    
   7   -99.90      -99.90      -99.90      -99.90      -99.90      -99.90      -99.90      -99.90      -99.90      -99.90    
       -99.90      -99.90      -99.90      -99.90      -99.90      -99.90      -99.90      -99.90      -99.90      -99.90    
       -99.90      -99.90      -99.90      -99.90      -99.90      -99.90      -99.90      -99.90      -99.90      -99.90    
       -99.90      -99.90      -99.90      -99.90      -99.90      -99.90      -99.90      -99.90      -99.90      -99.90    
   8   -99.90      -99.90      -99.90      -99.90      -99.90      -99.90      -99.90      -99.90      -99.90      -99.90    
       -99.90      -99.90      -99.90      -99.90      -99.90      -99.90      -99.90      -99.90      -99.90      -99.90    
       -99.90      -99.90      -99.90      -99.90      -99.90      -99.90      -99.90      -99.90      -99.90      -99.90    
       -99.90      -99.90      -99.90      -99.90      -99.90      -99.90      -99.90      -99.90      -99.90      -99.90    
   9   -99.90      -99.90      -99.90      -99.90      -99.90      -99.90      -99.90      -99.90      -99.90      -99.90    
       -99.90      -99.90      -99.90      -99.90      -99.90      -99.90      -99.90      -99.90      -99.90      -99.90    
       -99.90      -99.90      -99.90      -99.90      -99.90      -99.90      -99.90      -99.90      -99.90      -99.90    
       -99.90      -99.90      -99.90      -99.90      -99.90      -99.90      -99.90      -99.90      -99.90      -99.90    
  10   -99.90      -99.90      -99.90      -99.90      -99.90      -99.90      -99.90      -99.90      -99.90      -99.90    
       -99.90      -99.90      -99.90      -99.90      -99.90      -99.90      -99.90      -99.90      -99.90      -99.90    
       -99.90      -99.90      -99.90      -99.90      -99.90      -99.90      -99.90      -99.90      -99.90      -99.90    
       -99.90      -99.90      -99.90      -99.90      -99.90      -99.90      -99.90      -99.90      -99.90      -99.90    
  11   -99.90      -99.90      -99.90      -99.90      -99.90      -99.90      -99.90      -99.90      -99.90      -99.90    
       -99.90      -99.90      -99.90      -99.90      -99.90      -99.90      -99.90      -99.90      -99.90      -99.90    
       -99.90      -99.90      -99.90      -99.90      -99.90      -99.90      -99.90      -99.90      -99.90      -99.90    
       -99.90      -99.90      -99.90      -99.90      -99.90      -99.90      -99.90      -99.90      -99.90      -99.90    
  12   -99.90      -99.90      -99.90      -99.90      -99.90      -99.90      -99.90      -99.90      -99.90      -99.90    
       -99.90      -99.90      -99.90      -99.90      -99.90      -99.90      -99.90      -99.90      -99.90      -99.90    
       -99.90      -99.90      -99.90      -99.90      -99.90      -99.90      -99.90      -99.90      -99.90      -99.90    
       -99.90      -99.90      -99.90      -99.90      -99.90      -99.90      -99.90      -99.90      -99.90      -99.90    
  13   -99.90      -99.90      -99.90      -99.90      -99.90      -99.90      -99.90      -99.90      -99.90      -99.90    
       -99.90      -99.90      -99.90      -99.90      -99.90      -99.90      -99.90      -99.90      -99.90      -99.90    
       -99.90      -99.90      -99.90      -99.90      -99.90      -99.90      -99.90      -99.90      -99.90      -99.90    
       -99.90      -99.90      -99.90      -99.90      -99.90      -99.90      -99.90      -99.90      -99.90      -99.90    
  14   -99.90      -99.90      -99.90      -99.90      -99.90      -99.90      -99.90      -99.90      -99.90      -99.90    
       -99.90      -99.90      -99.90      -99.90      -99.90      -99.90      -99.90      -99.90      -99.90      -99.90    
       -99.90      -99.90      -99.90      -99.90      -99.90      -99.90      -99.90      -99.90      -99.90      -99.90    
       -99.90      -99.90      -99.90      -99.90      -99.90      -99.90      -99.90      -99.90      -99.90      -99.90    
  15   -99.90      -99.90      -99.90      -99.90      -99.90      -99.90      -99.90      -99.90      -99.90      -99.90    
       -99.90      -99.90      -99.90      -99.90      -99.90      -99.90      -99.90      -99.90      -99.90      -99.90    
       -99.90      -99.90      -99.90      -99.90      -99.90      -99.90      -99.90      -99.90      -99.90      -99.90    
       -99.90      -99.90      -99.90      -99.90      -99.90      -99.90      -99.90      -99.90      -99.90      -99.90    
  16   -99.90      -99.90      -99.90      -99.90      -99.90      -99.90      -99.90      -99.90      -99.90      -99.90    
       -99.90      -99.90      -99.90      -99.90      -99.90      -99.90      -99.90      -99.90      -99.90      -99.90    
       -99.90      -99.90      -99.90      -99.90      -99.90      -99.90      -99.90      -99.90      -99.90      -99.90    
       -99.90      -99.90      -99.90      -99.90      -99.90      -99.90      -99.90      -99.90      -99.90      -99.90    
  17   -99.90      -99.90      -99.90      -99.90      -99.90      -99.90      -99.90      -99.90      -99.90      -99.90    
       -99.90      -99.90      -99.90      -99.90      -99.90      -99.90      -99.90      -99.90      -99.90      -99.90    
       -99.90      -99.90      -99.90      -99.90      -99.90      -99.90      -99.90      -99.90      -99.90      -99.90    
       -99.90      -99.90      -99.90      -99.90      -99.90      -99.90      -99.90      -99.90      -99.90      -99.90    
  18   -99.90      -99.90      -99.90      -99.90      -99.90      -99.90      -99.90      -99.90      -99.90      -99.90    
       -99.90      -99.90      -99.90      -99.90      -99.90      -99.90      -99.90      -99.90      -99.90      -99.90    
       -99.90      -99.90      -99.90      -99.90      -99.90      -99.90      -99.90      -99.90      -99.90      -99.90    
       -99.90      -99.90      -99.90      -99.90      -99.90      -99.90      -99.90      -99.90      -99.90      -99.90    
  19   -99.90      -99.90      -99.90      -99.90      -99.90      -99.90      -99.90      -99.90      -99.90      -99.90    
       -99.90      -99.90      -99.90      -99.90      -99.90      -99.90      -99.90      -99.90      -99.90      -99.90    
       -99.90      -99.90      -99.90      -99.90      -99.90      -99.90      -99.90      -99.90      -99.90      -99.90    
       -99.90      -99.90      -99.90      -99.90      -99.90      -99.90      -99.90      -99.90      -99.90      -99.90    
  20   -99.90      -99.90      -99.90      -99.90      -99.90      -99.90      -99.90      -99.90      -99.90      -99.90    
       -99.90      -99.90      -99.90      -99.90      -99.90      -99.90      -99.90      -99.90      -99.90      -99.90    
       -99.90      -99.90      -99.90      -99.90      -99.90      -99.90      -99.90      -99.90      -99.90      -99.90    
       -99.90      -99.90      -99.90      -99.90      -99.90      -99.90      -99.90      -99.90      -99.90      -99.90    
  21   -99.90      -99.90      -99.90      -99.90      -99.90      -99.90      -99.90      -99.90      -99.90      -99.90    
       -99.90      -99.90      -99.90      -99.90      -99.90      -99.90      -99.90      -99.90      -99.90      -99.90    
       -99.90      -99.90      -99.90      -99.90      -99.90      -99.90      -99.90      -99.90      -99.90      -99.90    
       -99.90      -99.90      -99.90      -99.90      -99.90      -99.90      -99.90      -99.90      -99.90      -99.90    
  22   -99.90      -99.90      -99.90      -99.90      -99.90      -99.90      -99.90      -99.90      -99.90      -99.90    
       -99.90      -99.90      -99.90      -99.90      -99.90      -99.90      -99.90      -99.90      -99.90      -99.90    
       -99.90      -99.90      -99.90      -99.90      -99.90      -99.90      -99.90      -99.90      -99.90      -99.90    
       -99.90      -99.90      -99.90      -99.90      -99.90      -99.90      -99.90      -99.90      -99.90      -99.90    
  23   -99.90      -99.90      -99.90      -99.90      -99.90      -99.90      -99.90      -99.90      -99.90      -99.90    
       -99.90      -99.90      -99.90      -99.90      -99.90      -99.90      -99.90      -99.90      -99.90      -99.90    
       -99.90      -99.90      -99.90      -99.90      -99.90      -99.90      -99.90      -99.90      -99.90      -99.90    
       -99.90      -99.90      -99.90      -99.90      -99.90      -99.90      -99.90      -99.90      -99.90      -99.90    
  24   -99.90      -99.90      -99.90      -99.90      -99.90      -99.90      -99.90      -99.90      -99.90      -99.90    
       -99.90      -99.90      -99.90      -99.90      -99.90      -99.90      -99.90      -99.90      -99.90      -99.90    
       -99.90      -99.90      -99.90      -99.90      -99.90      -99.90      -99.90      -99.90      -99.90      -99.90    
       -99.90      -99.90      -99.90      -99.90      -99.90      -99.90      -99.90      -99.90      -99.90      -99.90    
  25   -99.90      -99.90      -99.90      -99.90      -99.90      -99.90      -99.90      -99.90      -99.90      -99.90    
       -99.90      -99.90      -99.90      -99.90      -99.90      -99.90      -99.90      -99.90      -99.90      -99.90    
       -99.90      -99.90      -99.90      -99.90      -99.90      -99.90      -99.90      -99.90      -99.90      -99.90    
       -99.90      -99.90      -99.90      -99.90      -99.90      -99.90      -99.90      -99.90      -99.90      -99.90    
  26   -99.90      -99.90      -99.90      -99.90      -99.90      -99.90      -99.90      -99.90      -99.90      -99.90    
       -99.90      -99.90      -99.90      -99.90      -99.90      -99.90      -99.90      -99.90      -99.90      -99.90    
       -99.90      -99.90      -99.90      -99.90      -99.90      -99.90      -99.90      -99.90      -99.90      -99.90    
       -99.90      -99.90      -99.90      -99.90      -99.90      -99.90      -99.90      -99.90      -99.90      -99.90    
  27   -99.90      -99.90      -99.90      -99.90      -99.90      -99.90      -99.90      -99.90      -99.90      -99.90    
       -99.90      -99.90      -99.90      -99.90      -99.90      -99.90      -99.90      -99.90      -99.90      -99.90    
       -99.90      -99.90      -99.90      -99.90      -99.90      -99.90      -99.90      -99.90      -99.90      -99.90    
       -99.90      -99.90      -99.90      -99.90      -99.90      -99.90      -99.90      -99.90      -99.90      -99.90    
  28   -99.90      -99.90      -99.90      -99.90      -99.90      -99.90      -99.90      -99.90      -99.90      -99.90    
       -99.90      -99.90      -99.90      -99.90      -99.90      -99.90      -99.90      -99.90      -99.90      -99.90    
       -99.90      -99.90      -99.90      -99.90      -99.90      -99.90      -99.90      -99.90      -99.90      -99.90    
       -99.90      -99.90      -99.90      -99.90      -99.90      -99.90      -99.90      -99.90      -99.90      -99.90    
  29   -99.90      -99.90      -99.90      -99.90      -99.90      -99.90      -99.90      -99.90      -99.90      -99.90    
       -99.90      -99.90      -99.90      -99.90      -99.90      -99.90      -99.90      -99.90      -99.90      -99.90    
       -99.90      -99.90      -99.90      -99.90      -99.90      -99.90      -99.90      -99.90      -99.90      -99.90    
       -99.90      -99.90      -99.90      -99.90      -99.90      -99.90      -99.90      -99.90      -99.90      -99.90    
  30   -99.90      -99.90      -99.90      -99.90      -99.90      -99.90      -99.90      -99.90      -99.90      -99.90    
       -99.90      -99.90      -99.90      -99.90      -99.90      -99.90      -99.90      -99.90      -99.90      -99.90    
       -99.90      -99.90      -99.90      -99.90      -99.90      -99.90      -99.90      -99.90      -99.90      -99.90    
       -99.90      -99.90      -99.90      -99.90      -99.90      -99.90      -99.90      -99.90      -99.90      -99.90    
  31   -99.90      -99.90      -99.90      -99.90      -99.90      -99.90      -99.90      -99.90      -99.90      -99.90    
       -99.90      -99.90      -99.90      -99.90      -99.90      -99.90      -99.90      -99.90      -99.90      -99.90    
       -99.90      -99.90      -99.90      -99.90      -99.90      -99.90      -99.90      -99.90      -99.90      -99.90    
       -99.90      -99.90      -99.90      -99.90      -99.90      -99.90      -99.90      -99.90      -99.90      -99.90    
  32   -99.90      -99.90      -99.90      -99.90      -99.90      -99.90      -99.90      -99.90      -99.90      -99.90    
       -99.90      -99.90      -99.90      -99.90      -99.90      -99.90      -99.90      -99.90      -99.90      -99.90    
       -99.90      -99.90      -99.90      -99.90      -99.90      -99.90      -99.90      -99.90      -99.90      -99.90    
       -99.90      -99.90      -99.90      -99.90      -99.90      -99.90      -99.90      -99.90      -99.90      -99.90    
  33   -99.90      -99.90      -99.90      -99.90      -99.90      -99.90      -99.90      -99.90      -99.90      -99.90    
       -99.90      -99.90      -99.90      -99.90      -99.90      -99.90      -99.90      -99.90      -99.90      -99.90    
       -99.90      -99.90      -99.90      -99.90      -99.90      -99.90      -99.90      -99.90      -99.90      -99.90    
       -99.90      -99.90      -99.90      -99.90      -99.90      -99.90      -99.90      -99.90      -99.90      -99.90    
  34   -99.90      -99.90      -99.90      -99.90      -99.90      -99.90      -99.90      -99.90      -99.90      -99.90    
       -99.90      -99.90      -99.90      -99.90      -99.90      -99.90      -99.90      -99.90      -99.90      -99.90    
       -99.90      -99.90      -99.90      -99.90      -99.90      -99.90      -99.90      -99.90      -99.90      -99.90    
       -99.90      -99.90      -99.90      -99.90      -99.90      -99.90      -99.90      -99.90      -99.90      -99.90    
  35   -99.90      -99.90      -99.90      -99.90      -99.90      -99.90      -99.90      -99.90      -99.90      -99.90    
       -99.90      -99.90      -99.90      -99.90      -99.90      -99.90      -99.90      -99.90      -99.90      -99.90    
       -99.90      -99.90      -99.90      -99.90      -99.90      -99.90      -99.90      -99.90      -99.90      -99.90    
       -99.90      -99.90      -99.90      -99.90      -99.90      -99.90      -99.90      -99.90      -99.90      -99.90    
  36   -99.90      -99.90      -99.90      -99.90      -99.90      -99.90      -99.90      -99.90      -99.90      -99.90    
       -99.90      -99.90      -99.90      -99.90      -99.90      -99.90      -99.90      -99.90      -99.90      -99.90    
       -99.90      -99.90      -99.90      -99.90      -99.90      -99.90      -99.90      -99.90      -99.90      -99.90    
       -99.90      -99.90      -99.90      -99.90      -99.90      -99.90      -99.90      -99.90      -99.90      -99.90    
  37   -99.90      -99.90      -99.90      -99.90      -99.90      -99.90      -99.90      -99.90      -99.90      -99.90    
       -99.90      -99.90      -99.90      -99.90      -99.90      -99.90      -99.90      -99.90      -99.90      -99.90    
       -99.90      -99.90      -99.90      -99.90      -99.90      -99.90      -99.90      -99.90      -99.90      -99.90    
       -99.90      -99.90      -99.90      -99.90      -99.90      -99.90      -99.90      -99.90      -99.90      -99.90    
  38   -99.90      -99.90      -99.90      -99.90      -99.90      -99.90      -99.90      -99.90      -99.90      -99.90    
       -99.90      -99.90      -99.90      -99.90      -99.90      -99.90      -99.90      -99.90      -99.90      -99.90    
       -99.90      -99.90      -99.90      -99.90      -99.90      -99.90      -99.90      -99.90      -99.90      -99.90    
       -99.90      -99.90      -99.90      -99.90      -99.90      -99.90      -99.90      -99.90      -99.90      -99.90    
  39   -99.90      -99.90      -99.90      -99.90      -99.90      -99.90      -99.90      -99.90      -99.90      -99.90    
       -99.90      -99.90      -99.90      -99.90      -99.90      -99.90      -99.90      -99.90      -99.90      -99.90    
       -99.90      -99.90      -99.90      -99.90      -99.90      -99.90      -99.90      -99.90      -99.90      -99.90    
       -99.90      -99.90      -99.90      -99.90      -99.90      -99.90      -99.90      -99.90      -99.90      -99.90    
  40   -99.90      -99.90      -99.90      -99.90      -99.90      -99.90      -99.90      -99.90      -99.90      -99.90    
       -99.90      -99.90      -99.90      -99.90      -99.90      -99.90      -99.90      -99.90      -99.90      -99.90    
       -99.90      -99.90      -99.90      -99.90      -99.90      -99.90      -99.90      -99.90      -99.90      -99.90    
       -99.90      -99.90      -99.90      -99.90      -99.90      -99.90      -99.90      -99.90      -99.90      -99.90    
1
              HEAD IN LAYER   9 AT END OF TIME STEP   1 IN STRESS PERIOD    1
  ---------------------------------------------------------------------------

            1           2           3           4           5           6           7           8           9          10
           11          12          13          14          15          16          17          18          19          20
           21          22          23          24          25          26          27          28          29          30
           31          32          33          34          35          36          37          38          39          40
 ........................................................................................................................
   1    28.75       28.35       25.75       25.26       25.09       25.03       25.01       25.00       25.00       25.00    
        25.00       25.00       25.00       25.00       25.00       25.00      -99.90      -99.90      -99.90      -99.90    
       -99.90      -99.90      -99.90      -99.90      -99.90      -99.90      -99.90      -99.90      -99.90      -99.90    
       -99.90      -99.90      -99.90      -99.90      -99.90      -99.90      -99.90      -99.90      -99.90      -99.90    
   2    28.35       28.02       25.61       25.21       25.08       25.03       25.01       25.00       25.00       25.00    
        25.00       25.00       25.00       25.00       25.00       25.00      -99.90      -99.90      -99.90      -99.90    
       -99.90      -99.90      -99.90      -99.90      -99.90      -99.90      -99.90      -99.90      -99.90      -99.90    
       -99.90      -99.90      -99.90      -99.90      -99.90      -99.90      -99.90      -99.90      -99.90      -99.90    
   3    25.75       25.61       25.28       25.12       25.05       25.02       25.01       25.00       25.00       25.00    
        25.00       25.00       25.00       25.00       25.00      -99.90      -99.90      -99.90      -99.90      -99.90    
       -99.90      -99.90      -99.90      -99.90      -99.90      -99.90      -99.90      -99.90      -99.90      -99.90    
       -99.90      -99.90      -99.90      -99.90      -99.90      -99.90      -99.90      -99.90      -99.90      -99.90    
   4    25.26       25.21       25.12       25.06       25.03       25.01       25.01       25.00       25.00       25.00    
        25.00       25.00       25.00       25.00       25.00      -99.90      -99.90      -99.90      -99.90      -99.90    
       -99.90      -99.90      -99.90      -99.90      -99.90      -99.90      -99.90      -99.90      -99.90      -99.90    
       -99.90      -99.90      -99.90      -99.90      -99.90      -99.90      -99.90      -99.90      -99.90      -99.90    
   5    25.09       25.08       25.05       25.03       25.01       25.01       25.00       25.00       25.00       25.00    
        25.00       25.00       25.00       25.00       25.00      -99.90      -99.90      -99.90      -99.90      -99.90    
       -99.90      -99.90      -99.90      -99.90      -99.90      -99.90      -99.90      -99.90      -99.90      -99.90    
       -99.90      -99.90      -99.90      -99.90      -99.90      -99.90      -99.90      -99.90      -99.90      -99.90    
   6    25.03       25.03       25.02       25.01       25.01       25.00       25.00       25.00       25.00       25.00    
        25.00       25.00       25.00       25.00      -99.90      -99.90      -99.90      -99.90      -99.90      -99.90    
       -99.90      -99.90      -99.90      -99.90      -99.90      -99.90      -99.90      -99.90      -99.90      -99.90    
       -99.90      -99.90      -99.90      -99.90      -99.90      -99.90      -99.90      -99.90      -99.90      -99.90    
   7    25.01       25.01       25.01       25.01       25.00       25.00       25.00       25.00       25.00       25.00    
        25.00       25.00       25.00       25.00      -99.90      -99.90      -99.90      -99.90      -99.90      -99.90    
       -99.90      -99.90      -99.90      -99.90      -99.90      -99.90      -99.90      -99.90      -99.90      -99.90    
       -99.90      -99.90      -99.90      -99.90      -99.90      -99.90      -99.90      -99.90      -99.90      -99.90    
   8    25.00       25.00       25.00       25.00       25.00       25.00       25.00       25.00       25.00       25.00    
        25.00       25.00       25.00      -99.90      -99.90      -99.90      -99.90      -99.90      -99.90      -99.90    
       -99.90      -99.90      -99.90      -99.90      -99.90      -99.90      -99.90      -99.90      -99.90      -99.90    
       -99.90      -99.90      -99.90      -99.90      -99.90      -99.90      -99.90      -99.90      -99.90      -99.90    
   9    25.00       25.00       25.00       25.00       25.00       25.00       25.00       25.00       25.00       25.00    
        25.00       25.00       25.00      -99.90      -99.90      -99.90      -99.90      -99.90      -99.90      -99.90    
       -99.90      -99.90      -99.90      -99.90      -99.90      -99.90      -99.90      -99.90      -99.90      -99.90    
       -99.90      -99.90      -99.90      -99.90      -99.90      -99.90      -99.90      -99.90      -99.90      -99.90    
  10    25.00       25.00       25.00       25.00       25.00       25.00       25.00       25.00       25.00       25.00    
        25.00       25.00      -99.90      -99.90      -99.90      -99.90      -99.90      -99.90      -99.90      -99.90    
       -99.90      -99.90      -99.90      -99.90      -99.90      -99.90      -99.90      -99.90      -99.90      -99.90    
       -99.90      -99.90      -99.90      -99.90      -99.90      -99.90      -99.90      -99.90      -99.90      -99.90    
  11    25.00       25.00       25.00       25.00       25.00       25.00       25.00       25.00       25.00       25.00    
        25.00      -99.90      -99.90      -99.90      -99.90      -99.90      -99.90      -99.90      -99.90      -99.90    
       -99.90      -99.90      -99.90      -99.90      -99.90      -99.90      -99.90      -99.90      -99.90      -99.90    
       -99.90      -99.90      -99.90      -99.90      -99.90      -99.90      -99.90      -99.90      -99.90      -99.90    
  12    25.00       25.00       25.00       25.00       25.00       25.00       25.00       25.00       25.00       25.00    
       -99.90      -99.90      -99.90      -99.90      -99.90      -99.90      -99.90      -99.90      -99.90      -99.90    
       -99.90      -99.90      -99.90      -99.90      -99.90      -99.90      -99.90      -99.90      -99.90      -99.90    
       -99.90      -99.90      -99.90      -99.90      -99.90      -99.90      -99.90      -99.90      -99.90      -99.90    
  13    25.00       25.00       25.00       25.00       25.00       25.00       25.00       25.00       25.00      -99.90    
       -99.90      -99.90      -99.90      -99.90      -99.90      -99.90      -99.90      -99.90      -99.90      -99.90    
       -99.90      -99.90      -99.90      -99.90      -99.90      -99.90      -99.90      -99.90      -99.90      -99.90    
       -99.90      -99.90      -99.90      -99.90      -99.90      -99.90      -99.90      -99.90      -99.90      -99.90    
  14    25.00       25.00       25.00       25.00       25.00       25.00       25.00      -99.90      -99.90      -99.90    
       -99.90      -99.90      -99.90      -99.90      -99.90      -99.90      -99.90      -99.90      -99.90      -99.90    
       -99.90      -99.90      -99.90      -99.90      -99.90      -99.90      -99.90      -99.90      -99.90      -99.90    
       -99.90      -99.90      -99.90      -99.90      -99.90      -99.90      -99.90      -99.90      -99.90      -99.90    
  15    25.00       25.00       25.00       25.00       25.00      -99.90      -99.90      -99.90      -99.90      -99.90    
       -99.90      -99.90      -99.90      -99.90      -99.90      -99.90      -99.90      -99.90      -99.90      -99.90    
       -99.90      -99.90      -99.90      -99.90      -99.90      -99.90      -99.90      -99.90      -99.90      -99.90    
       -99.90      -99.90      -99.90      -99.90      -99.90      -99.90      -99.90      -99.90      -99.90      -99.90    
  16    25.00       25.00      -99.90      -99.90      -99.90      -99.90      -99.90      -99.90      -99.90      -99.90    
       -99.90      -99.90      -99.90      -99.90      -99.90      -99.90      -99.90      -99.90      -99.90      -99.90    
       -99.90      -99.90      -99.90      -99.90      -99.90      -99.90      -99.90      -99.90      -99.90      -99.90    
       -99.90      -99.90      -99.90      -99.90      -99.90      -99.90      -99.90      -99.90      -99.90      -99.90    
  17   -99.90      -99.90      -99.90      -99.90      -99.90      -99.90      -99.90      -99.90      -99.90      -99.90    
       -99.90      -99.90      -99.90      -99.90      -99.90      -99.90      -99.90      -99.90      -99.90      -99.90    
       -99.90      -99.90      -99.90      -99.90      -99.90      -99.90      -99.90      -99.90      -99.90      -99.90    
       -99.90      -99.90      -99.90      -99.90      -99.90      -99.90      -99.90      -99.90      -99.90      -99.90    
  18   -99.90      -99.90      -99.90      -99.90      -99.90      -99.90      -99.90      -99.90      -99.90      -99.90    
       -99.90      -99.90      -99.90      -99.90      -99.90      -99.90      -99.90      -99.90      -99.90      -99.90    
       -99.90      -99.90      -99.90      -99.90      -99.90      -99.90      -99.90      -99.90      -99.90      -99.90    
       -99.90      -99.90      -99.90      -99.90      -99.90      -99.90      -99.90      -99.90      -99.90      -99.90    
  19   -99.90      -99.90      -99.90      -99.90      -99.90      -99.90      -99.90      -99.90      -99.90      -99.90    
       -99.90      -99.90      -99.90      -99.90      -99.90      -99.90      -99.90      -99.90      -99.90      -99.90    
       -99.90      -99.90      -99.90      -99.90      -99.90      -99.90      -99.90      -99.90      -99.90      -99.90    
       -99.90      -99.90      -99.90      -99.90      -99.90      -99.90      -99.90      -99.90      -99.90      -99.90    
  20   -99.90      -99.90      -99.90      -99.90      -99.90      -99.90      -99.90      -99.90      -99.90      -99.90    
       -99.90      -99.90      -99.90      -99.90      -99.90      -99.90      -99.90      -99.90      -99.90      -99.90    
       -99.90      -99.90      -99.90      -99.90      -99.90      -99.90      -99.90      -99.90      -99.90      -99.90    
       -99.90      -99.90      -99.90      -99.90      -99.90      -99.90      -99.90      -99.90      -99.90      -99.90    
  21   -99.90      -99.90      -99.90      -99.90      -99.90      -99.90      -99.90      -99.90      -99.90      -99.90    
       -99.90      -99.90      -99.90      -99.90      -99.90      -99.90      -99.90      -99.90      -99.90      -99.90    
       -99.90      -99.90      -99.90      -99.90      -99.90      -99.90      -99.90      -99.90      -99.90      -99.90    
       -99.90      -99.90      -99.90      -99.90      -99.90      -99.90      -99.90      -99.90      -99.90      -99.90    
  22   -99.90      -99.90      -99.90      -99.90      -99.90      -99.90      -99.90      -99.90      -99.90      -99.90    
       -99.90      -99.90      -99.90      -99.90      -99.90      -99.90      -99.90      -99.90      -99.90      -99.90    
       -99.90      -99.90      -99.90      -99.90      -99.90      -99.90      -99.90      -99.90      -99.90      -99.90    
       -99.90      -99.90      -99.90      -99.90      -99.90      -99.90      -99.90      -99.90      -99.90      -99.90    
  23   -99.90      -99.90      -99.90      -99.90      -99.90      -99.90      -99.90      -99.90      -99.90      -99.90    
       -99.90      -99.90      -99.90      -99.90      -99.90      -99.90      -99.90      -99.90      -99.90      -99.90    
       -99.90      -99.90      -99.90      -99.90      -99.90      -99.90      -99.90      -99.90      -99.90      -99.90    
       -99.90      -99.90      -99.90      -99.90      -99.90      -99.90      -99.90      -99.90      -99.90      -99.90    
  24   -99.90      -99.90      -99.90      -99.90      -99.90      -99.90      -99.90      -99.90      -99.90      -99.90    
       -99.90      -99.90      -99.90      -99.90      -99.90      -99.90      -99.90      -99.90      -99.90      -99.90    
       -99.90      -99.90      -99.90      -99.90      -99.90      -99.90      -99.90      -99.90      -99.90      -99.90    
       -99.90      -99.90      -99.90      -99.90      -99.90      -99.90      -99.90      -99.90      -99.90      -99.90    
  25   -99.90      -99.90      -99.90      -99.90      -99.90      -99.90      -99.90      -99.90      -99.90      -99.90    
       -99.90      -99.90      -99.90      -99.90      -99.90      -99.90      -99.90      -99.90      -99.90      -99.90    
       -99.90      -99.90      -99.90      -99.90      -99.90      -99.90      -99.90      -99.90      -99.90      -99.90    
       -99.90      -99.90      -99.90      -99.90      -99.90      -99.90      -99.90      -99.90      -99.90      -99.90    
  26   -99.90      -99.90      -99.90      -99.90      -99.90      -99.90      -99.90      -99.90      -99.90      -99.90    
       -99.90      -99.90      -99.90      -99.90      -99.90      -99.90      -99.90      -99.90      -99.90      -99.90    
       -99.90      -99.90      -99.90      -99.90      -99.90      -99.90      -99.90      -99.90      -99.90      -99.90    
       -99.90      -99.90      -99.90      -99.90      -99.90      -99.90      -99.90      -99.90      -99.90      -99.90    
  27   -99.90      -99.90      -99.90      -99.90      -99.90      -99.90      -99.90      -99.90      -99.90      -99.90    
       -99.90      -99.90      -99.90      -99.90      -99.90      -99.90      -99.90      -99.90      -99.90      -99.90    
       -99.90      -99.90      -99.90      -99.90      -99.90      -99.90      -99.90      -99.90      -99.90      -99.90    
       -99.90      -99.90      -99.90      -99.90      -99.90      -99.90      -99.90      -99.90      -99.90      -99.90    
  28   -99.90      -99.90      -99.90      -99.90      -99.90      -99.90      -99.90      -99.90      -99.90      -99.90    
       -99.90      -99.90      -99.90      -99.90      -99.90      -99.90      -99.90      -99.90      -99.90      -99.90    
       -99.90      -99.90      -99.90      -99.90      -99.90      -99.90      -99.90      -99.90      -99.90      -99.90    
       -99.90      -99.90      -99.90      -99.90      -99.90      -99.90      -99.90      -99.90      -99.90      -99.90    
  29   -99.90      -99.90      -99.90      -99.90      -99.90      -99.90      -99.90      -99.90      -99.90      -99.90    
       -99.90      -99.90      -99.90      -99.90      -99.90      -99.90      -99.90      -99.90      -99.90      -99.90    
       -99.90      -99.90      -99.90      -99.90      -99.90      -99.90      -99.90      -99.90      -99.90      -99.90    
       -99.90      -99.90      -99.90      -99.90      -99.90      -99.90      -99.90      -99.90      -99.90      -99.90    
  30   -99.90      -99.90      -99.90      -99.90      -99.90      -99.90      -99.90      -99.90      -99.90      -99.90    
       -99.90      -99.90      -99.90      -99.90      -99.90      -99.90      -99.90      -99.90      -99.90      -99.90    
       -99.90      -99.90      -99.90      -99.90      -99.90      -99.90      -99.90      -99.90      -99.90      -99.90    
       -99.90      -99.90      -99.90      -99.90      -99.90      -99.90      -99.90      -99.90      -99.90      -99.90    
  31   -99.90      -99.90      -99.90      -99.90      -99.90      -99.90      -99.90      -99.90      -99.90      -99.90    
       -99.90      -99.90      -99.90      -99.90      -99.90      -99.90      -99.90      -99.90      -99.90      -99.90    
       -99.90      -99.90      -99.90      -99.90      -99.90      -99.90      -99.90      -99.90      -99.90      -99.90    
       -99.90      -99.90      -99.90      -99.90      -99.90      -99.90      -99.90      -99.90      -99.90      -99.90    
  32   -99.90      -99.90      -99.90      -99.90      -99.90      -99.90      -99.90      -99.90      -99.90      -99.90    
       -99.90      -99.90      -99.90      -99.90      -99.90      -99.90      -99.90      -99.90      -99.90      -99.90    
       -99.90      -99.90      -99.90      -99.90      -99.90      -99.90      -99.90      -99.90      -99.90      -99.90    
       -99.90      -99.90      -99.90      -99.90      -99.90      -99.90      -99.90      -99.90      -99.90      -99.90    
  33   -99.90      -99.90      -99.90      -99.90      -99.90      -99.90      -99.90      -99.90      -99.90      -99.90    
       -99.90      -99.90      -99.90      -99.90      -99.90      -99.90      -99.90      -99.90      -99.90      -99.90    
       -99.90      -99.90      -99.90      -99.90      -99.90      -99.90      -99.90      -99.90      -99.90      -99.90    
       -99.90      -99.90      -99.90      -99.90      -99.90      -99.90      -99.90      -99.90      -99.90      -99.90    
  34   -99.90      -99.90      -99.90      -99.90      -99.90      -99.90      -99.90      -99.90      -99.90      -99.90    
       -99.90      -99.90      -99.90      -99.90      -99.90      -99.90      -99.90      -99.90      -99.90      -99.90    
       -99.90      -99.90      -99.90      -99.90      -99.90      -99.90      -99.90      -99.90      -99.90      -99.90    
       -99.90      -99.90      -99.90      -99.90      -99.90      -99.90      -99.90      -99.90      -99.90      -99.90    
  35   -99.90      -99.90      -99.90      -99.90      -99.90      -99.90      -99.90      -99.90      -99.90      -99.90    
       -99.90      -99.90      -99.90      -99.90      -99.90      -99.90      -99.90      -99.90      -99.90      -99.90    
       -99.90      -99.90      -99.90      -99.90      -99.90      -99.90      -99.90      -99.90      -99.90      -99.90    
       -99.90      -99.90      -99.90      -99.90      -99.90      -99.90      -99.90      -99.90      -99.90      -99.90    
  36   -99.90      -99.90      -99.90      -99.90      -99.90      -99.90      -99.90      -99.90      -99.90      -99.90    
       -99.90      -99.90      -99.90      -99.90      -99.90      -99.90      -99.90      -99.90      -99.90      -99.90    
       -99.90      -99.90      -99.90      -99.90      -99.90      -99.90      -99.90      -99.90      -99.90      -99.90    
       -99.90      -99.90      -99.90      -99.90      -99.90      -99.90      -99.90      -99.90      -99.90      -99.90    
  37   -99.90      -99.90      -99.90      -99.90      -99.90      -99.90      -99.90      -99.90      -99.90      -99.90    
       -99.90      -99.90      -99.90      -99.90      -99.90      -99.90      -99.90      -99.90      -99.90      -99.90    
       -99.90      -99.90      -99.90      -99.90      -99.90      -99.90      -99.90      -99.90      -99.90      -99.90    
       -99.90      -99.90      -99.90      -99.90      -99.90      -99.90      -99.90      -99.90      -99.90      -99.90    
  38   -99.90      -99.90      -99.90      -99.90      -99.90      -99.90      -99.90      -99.90      -99.90      -99.90    
       -99.90      -99.90      -99.90      -99.90      -99.90      -99.90      -99.90      -99.90      -99.90      -99.90    
       -99.90      -99.90      -99.90      -99.90      -99.90      -99.90      -99.90      -99.90      -99.90      -99.90    
       -99.90      -99.90      -99.90      -99.90      -99.90      -99.90      -99.90      -99.90      -99.90      -99.90    
  39   -99.90      -99.90      -99.90      -99.90      -99.90      -99.90      -99.90      -99.90      -99.90      -99.90    
       -99.90      -99.90      -99.90      -99.90      -99.90      -99.90      -99.90      -99.90      -99.90      -99.90    
       -99.90      -99.90      -99.90      -99.90      -99.90      -99.90      -99.90      -99.90      -99.90      -99.90    
       -99.90      -99.90      -99.90      -99.90      -99.90      -99.90      -99.90      -99.90      -99.90      -99.90    
  40   -99.90      -99.90      -99.90      -99.90      -99.90      -99.90      -99.90      -99.90      -99.90      -99.90    
       -99.90      -99.90      -99.90      -99.90      -99.90      -99.90      -99.90      -99.90      -99.90      -99.90    
       -99.90      -99.90      -99.90      -99.90      -99.90      -99.90      -99.90      -99.90      -99.90      -99.90    
       -99.90      -99.90      -99.90      -99.90      -99.90      -99.90      -99.90      -99.90      -99.90      -99.90    
1
              HEAD IN LAYER  10 AT END OF TIME STEP   1 IN STRESS PERIOD    1
  ---------------------------------------------------------------------------

            1           2           3           4           5           6           7           8           9          10
           11          12          13          14          15          16          17          18          19          20
           21          22          23          24          25          26          27          28          29          30
           31          32          33          34          35          36          37          38          39          40
 ........................................................................................................................
   1    28.55       28.07       25.89       25.31       25.11       25.04       25.02       25.01       25.00       25.00    
        25.00       25.00       25.00       25.00       25.00       25.00       25.00       25.00       25.00       25.00    
        25.00       25.00       25.00       25.00       25.00       25.00       25.00       25.00       25.00       25.00    
        25.00       25.00       25.00       25.00       25.00       25.00       25.00       25.00       25.00       25.00    
   2    28.07       27.67       25.73       25.25       25.09       25.03       25.01       25.00       25.00       25.00    
        25.00       25.00       25.00       25.00       25.00       25.00       25.00       25.00       25.00       25.00    
        25.00       25.00       25.00       25.00       25.00       25.00       25.00       25.00       25.00       25.00    
        25.00       25.00       25.00       25.00       25.00       25.00       25.00       25.00       25.00       25.00    
   3    25.89       25.73       25.34       25.15       25.06       25.02       25.01       25.00       25.00       25.00    
        25.00       25.00       25.00       25.00       25.00       25.00       25.00       25.00       25.00       25.00    
        25.00       25.00       25.00       25.00       25.00       25.00       25.00       25.00       25.00       25.00    
        25.00       25.00       25.00       25.00       25.00       25.00       25.00       25.00       25.00       25.00    
   4    25.31       25.25       25.15       25.07       25.03       25.01       25.01       25.00       25.00       25.00    
        25.00       25.00       25.00       25.00       25.00       25.00       25.00       25.00       25.00       25.00    
        25.00       25.00       25.00       25.00       25.00       25.00       25.00       25.00       25.00       25.00    
        25.00       25.00       25.00       25.00       25.00       25.00       25.00       25.00       25.00       25.00    
   5    25.11       25.09       25.06       25.03       25.02       25.01       25.00       25.00       25.00       25.00    
        25.00       25.00       25.00       25.00       25.00       25.00       25.00       25.00       25.00       25.00    
        25.00       25.00       25.00       25.00       25.00       25.00       25.00       25.00       25.00       25.00    
        25.00       25.00       25.00       25.00       25.00       25.00       25.00       25.00       25.00       25.00    
   6    25.04       25.03       25.02       25.01       25.01       25.00       25.00       25.00       25.00       25.00    
        25.00       25.00       25.00       25.00       25.00       25.00       25.00       25.00       25.00       25.00    
        25.00       25.00       25.00       25.00       25.00       25.00       25.00       25.00       25.00       25.00    
        25.00       25.00       25.00       25.00       25.00       25.00       25.00       25.00       25.00       25.00    
   7    25.02       25.01       25.01       25.01       25.00       25.00       25.00       25.00       25.00       25.00    
        25.00       25.00       25.00       25.00       25.00       25.00       25.00       25.00       25.00       25.00    
        25.00       25.00       25.00       25.00       25.00       25.00       25.00       25.00       25.00       25.00    
        25.00       25.00       25.00       25.00       25.00       25.00       25.00       25.00       25.00       25.00    
   8    25.01       25.00       25.00       25.00       25.00       25.00       25.00       25.00       25.00       25.00    
        25.00       25.00       25.00       25.00       25.00       25.00       25.00       25.00       25.00       25.00    
        25.00       25.00       25.00       25.00       25.00       25.00       25.00       25.00       25.00       25.00    
        25.00       25.00       25.00       25.00       25.00       25.00       25.00       25.00       25.00       25.00    
   9    25.00       25.00       25.00       25.00       25.00       25.00       25.00       25.00       25.00       25.00    
        25.00       25.00       25.00       25.00       25.00       25.00       25.00       25.00       25.00       25.00    
        25.00       25.00       25.00       25.00       25.00       25.00       25.00       25.00       25.00       25.00    
        25.00       25.00       25.00       25.00       25.00       25.00       25.00       25.00       25.00       25.00    
  10    25.00       25.00       25.00       25.00       25.00       25.00       25.00       25.00       25.00       25.00    
        25.00       25.00       25.00       25.00       25.00       25.00       25.00       25.00       25.00       25.00    
        25.00       25.00       25.00       25.00       25.00       25.00       25.00       25.00       25.00       25.00    
        25.00       25.00       25.00       25.00       25.00       25.00       25.00       25.00       25.00       25.00    
  11    25.00       25.00       25.00       25.00       25.00       25.00       25.00       25.00       25.00       25.00    
        25.00       25.00       25.00       25.00       25.00       25.00       25.00       25.00       25.00       25.00    
        25.00       25.00       25.00       25.00       25.00       25.00       25.00       25.00       25.00       25.00    
        25.00       25.00       25.00       25.00       25.00       25.00       25.00       25.00       25.00       25.00    
  12    25.00       25.00       25.00       25.00       25.00       25.00       25.00       25.00       25.00       25.00    
        25.00       25.00       25.00       25.00       25.00       25.00       25.00       25.00       25.00       25.00    
        25.00       25.00       25.00       25.00       25.00       25.00       25.00       25.00       25.00       25.00    
        25.00       25.00       25.00       25.00       25.00       25.00       25.00       25.00       25.00       25.00    
  13    25.00       25.00       25.00       25.00       25.00       25.00       25.00       25.00       25.00       25.00    
        25.00       25.00       25.00       25.00       25.00       25.00       25.00       25.00       25.00       25.00    
        25.00       25.00       25.00       25.00       25.00       25.00       25.00       25.00       25.00       25.00    
        25.00       25.00       25.00       25.00       25.00       25.00       25.00       25.00       25.00       25.00    
  14    25.00       25.00       25.00       25.00       25.00       25.00       25.00       25.00       25.00       25.00    
        25.00       25.00       25.00       25.00       25.00       25.00       25.00       25.00       25.00       25.00    
        25.00       25.00       25.00       25.00       25.00       25.00       25.00       25.00       25.00       25.00    
        25.00       25.00       25.00       25.00       25.00       25.00       25.00       25.00       25.00       25.00    
  15    25.00       25.00       25.00       25.00       25.00       25.00       25.00       25.00       25.00       25.00    
        25.00       25.00       25.00       25.00       25.00       25.00       25.00       25.00       25.00       25.00    
        25.00       25.00       25.00       25.00       25.00       25.00       25.00       25.00       25.00       25.00    
        25.00       25.00       25.00       25.00       25.00       25.00       25.00       25.00       25.00       25.00    
  16    25.00       25.00       25.00       25.00       25.00       25.00       25.00       25.00       25.00       25.00    
        25.00       25.00       25.00       25.00       25.00       25.00       25.00       25.00       25.00       25.00    
        25.00       25.00       25.00       25.00       25.00       25.00       25.00       25.00       25.00       25.00    
        25.00       25.00       25.00       25.00       25.00       25.00       25.00       25.00       25.00       25.00    
  17    25.00       25.00       25.00       25.00       25.00       25.00       25.00       25.00       25.00       25.00    
        25.00       25.00       25.00       25.00       25.00       25.00       25.00       25.00       25.00       25.00    
        25.00       25.00       25.00       25.00       25.00       25.00       25.00       25.00       25.00       25.00    
        25.00       25.00       25.00       25.00       25.00       25.00       25.00       25.00       25.00       25.00    
  18    25.00       25.00       25.00       25.00       25.00       25.00       25.00       25.00       25.00       25.00    
        25.00       25.00       25.00       25.00       25.00       25.00       25.00       25.00       25.00       25.00    
        25.00       25.00       25.00       25.00       25.00       25.00       25.00       25.00       25.00       25.00    
        25.00       25.00       25.00       25.00       25.00       25.00       25.00       25.00       25.00       25.00    
  19    25.00       25.00       25.00       25.00       25.00       25.00       25.00       25.00       25.00       25.00    
        25.00       25.00       25.00       25.00       25.00       25.00       25.00       25.00       25.00       25.00    
        25.00       25.00       25.00       25.00       25.00       25.00       25.00       25.00       25.00       25.00    
        25.00       25.00       25.00       25.00       25.00       25.00       25.00       25.00       25.00       25.00    
  20    25.00       25.00       25.00       25.00       25.00       25.00       25.00       25.00       25.00       25.00    
        25.00       25.00       25.00       25.00       25.00       25.00       25.00       25.00       25.00       25.00    
        25.00       25.00       25.00       25.00       25.00       25.00       25.00       25.00       25.00       25.00    
        25.00       25.00       25.00       25.00       25.00       25.00       25.00       25.00       25.00       25.00    
  21    25.00       25.00       25.00       25.00       25.00       25.00       25.00       25.00       25.00       25.00    
        25.00       25.00       25.00       25.00       25.00       25.00       25.00       25.00       25.00       25.00    
        25.00       25.00       25.00       25.00       25.00       25.00       25.00       25.00       25.00       25.00    
        25.00       25.00       25.00       25.00       25.00       25.00       25.00       25.00       25.00       25.00    
  22    25.00       25.00       25.00       25.00       25.00       25.00       25.00       25.00       25.00       25.00    
        25.00       25.00       25.00       25.00       25.00       25.00       25.00       25.00       25.00       25.00    
        25.00       25.00       25.00       25.00       25.00       25.00       25.00       25.00       25.00       25.00    
        25.00       25.00       25.00       25.00       25.00       25.00       25.00       25.00       25.00       25.00    
  23    25.00       25.00       25.00       25.00       25.00       25.00       25.00       25.00       25.00       25.00    
        25.00       25.00       25.00       25.00       25.00       25.00       25.00       25.00       25.00       25.00    
        25.00       25.00       25.00       25.00       25.00       25.00       25.00       25.00       25.00       25.00    
        25.00       25.00       25.00       25.00       25.00       25.00       25.00       25.00       25.00       25.00    
  24    25.00       25.00       25.00       25.00       25.00       25.00       25.00       25.00       25.00       25.00    
        25.00       25.00       25.00       25.00       25.00       25.00       25.00       25.00       25.00       25.00    
        25.00       25.00       25.00       25.00       25.00       25.00       25.00       25.00       25.00       25.00    
        25.00       25.00       25.00       25.00       25.00       25.00       25.00       25.00       25.00       25.00    
  25    25.00       25.00       25.00       25.00       25.00       25.00       25.00       25.00       25.00       25.00    
        25.00       25.00       25.00       25.00       25.00       25.00       25.00       25.00       25.00       25.00    
        25.00       25.00       25.00       25.00       25.00       25.00       25.00       25.00       25.00       25.00    
        25.00       25.00       25.00       25.00       25.00       25.00       25.00       25.00       25.00       25.00    
  26    25.00       25.00       25.00       25.00       25.00       25.00       25.00       25.00       25.00       25.00    
        25.00       25.00       25.00       25.00       25.00       25.00       25.00       25.00       25.00       25.00    
        25.00       25.00       25.00       25.00       25.00       25.00       25.00       25.00       25.00       25.00    
        25.00       25.00       25.00       25.00       25.00       25.00       25.00       25.00       25.00       25.00    
  27    25.00       25.00       25.00       25.00       25.00       25.00       25.00       25.00       25.00       25.00    
        25.00       25.00       25.00       25.00       25.00       25.00       25.00       25.00       25.00       25.00    
        25.00       25.00       25.00       25.00       25.00       25.00       25.00       25.00       25.00       25.00    
        25.00       25.00       25.00       25.00       25.00       25.00       25.00       25.00       25.00       25.00    
  28    25.00       25.00       25.00       25.00       25.00       25.00       25.00       25.00       25.00       25.00    
        25.00       25.00       25.00       25.00       25.00       25.00       25.00       25.00       25.00       25.00    
        25.00       25.00       25.00       25.00       25.00       25.00       25.00       25.00       25.00       25.00    
        25.00       25.00       25.00       25.00       25.00       25.00       25.00       25.00       25.00       25.00    
  29    25.00       25.00       25.00       25.00       25.00       25.00       25.00       25.00       25.00       25.00    
        25.00       25.00       25.00       25.00       25.00       25.00       25.00       25.00       25.00       25.00    
        25.00       25.00       25.00       25.00       25.00       25.00       25.00       25.00       25.00       25.00    
        25.00       25.00       25.00       25.00       25.00       25.00       25.00       25.00       25.00       25.00    
  30    25.00       25.00       25.00       25.00       25.00       25.00       25.00       25.00       25.00       25.00    
        25.00       25.00       25.00       25.00       25.00       25.00       25.00       25.00       25.00       25.00    
        25.00       25.00       25.00       25.00       25.00       25.00       25.00       25.00       25.00       25.00    
        25.00       25.00       25.00       25.00       25.00       25.00       25.00       25.00       25.00       25.00    
  31    25.00       25.00       25.00       25.00       25.00       25.00       25.00       25.00       25.00       25.00    
        25.00       25.00       25.00       25.00       25.00       25.00       25.00       25.00       25.00       25.00    
        25.00       25.00       25.00       25.00       25.00       25.00       25.00       25.00       25.00       25.00    
        25.00       25.00       25.00       25.00       25.00       25.00       25.00       25.00       25.00       25.00    
  32    25.00       25.00       25.00       25.00       25.00       25.00       25.00       25.00       25.00       25.00    
        25.00       25.00       25.00       25.00       25.00       25.00       25.00       25.00       25.00       25.00    
        25.00       25.00       25.00       25.00       25.00       25.00       25.00       25.00       25.00       25.00    
        25.00       25.00       25.00       25.00       25.00       25.00       25.00       25.00       25.00       25.00    
  33    25.00       25.00       25.00       25.00       25.00       25.00       25.00       25.00       25.00       25.00    
        25.00       25.00       25.00       25.00       25.00       25.00       25.00       25.00       25.00       25.00    
        25.00       25.00       25.00       25.00       25.00       25.00       25.00       25.00       25.00       25.00    
        25.00       25.00       25.00       25.00       25.00       25.00       25.00       25.00       25.00       25.00    
  34    25.00       25.00       25.00       25.00       25.00       25.00       25.00       25.00       25.00       25.00    
        25.00       25.00       25.00       25.00       25.00       25.00       25.00       25.00       25.00       25.00    
        25.00       25.00       25.00       25.00       25.00       25.00       25.00       25.00       25.00       25.00    
        25.00       25.00       25.00       25.00       25.00       25.00       25.00       25.00       25.00       25.00    
  35    25.00       25.00       25.00       25.00       25.00       25.00       25.00       25.00       25.00       25.00    
        25.00       25.00       25.00       25.00       25.00       25.00       25.00       25.00       25.00       25.00    
        25.00       25.00       25.00       25.00       25.00       25.00       25.00       25.00       25.00       25.00    
        25.00       25.00       25.00       25.00       25.00       25.00       25.00       25.00       25.00       25.00    
  36    25.00       25.00       25.00       25.00       25.00       25.00       25.00       25.00       25.00       25.00    
        25.00       25.00       25.00       25.00       25.00       25.00       25.00       25.00       25.00       25.00    
        25.00       25.00       25.00       25.00       25.00       25.00       25.00       25.00       25.00       25.00    
        25.00       25.00       25.00       25.00       25.00       25.00       25.00       25.00       25.00       25.00    
  37    25.00       25.00       25.00       25.00       25.00       25.00       25.00       25.00       25.00       25.00    
        25.00       25.00       25.00       25.00       25.00       25.00       25.00       25.00       25.00       25.00    
        25.00       25.00       25.00       25.00       25.00       25.00       25.00       25.00       25.00       25.00    
        25.00       25.00       25.00       25.00       25.00       25.00       25.00       25.00       25.00       25.00    
  38    25.00       25.00       25.00       25.00       25.00       25.00       25.00       25.00       25.00       25.00    
        25.00       25.00       25.00       25.00       25.00       25.00       25.00       25.00       25.00       25.00    
        25.00       25.00       25.00       25.00       25.00       25.00       25.00       25.00       25.00       25.00    
        25.00       25.00       25.00       25.00       25.00       25.00       25.00       25.00       25.00       25.00    
  39    25.00       25.00       25.00       25.00       25.00       25.00       25.00       25.00       25.00       25.00    
        25.00       25.00       25.00       25.00       25.00       25.00       25.00       25.00       25.00       25.00    
        25.00       25.00       25.00       25.00       25.00       25.00       25.00       25.00       25.00       25.00    
        25.00       25.00       25.00       25.00       25.00       25.00       25.00       25.00       25.00       25.00    
  40    25.00       25.00       25.00       25.00       25.00       25.00       25.00       25.00       25.00       25.00    
        25.00       25.00       25.00       25.00       25.00       25.00       25.00       25.00       25.00       25.00    
        25.00       25.00       25.00       25.00       25.00       25.00       25.00       25.00       25.00       25.00    
        25.00       25.00       25.00       25.00       25.00       25.00       25.00       25.00       25.00       25.00    
1
              HEAD IN LAYER  11 AT END OF TIME STEP   1 IN STRESS PERIOD    1
  ---------------------------------------------------------------------------

            1           2           3           4           5           6           7           8           9          10
           11          12          13          14          15          16          17          18          19          20
           21          22          23          24          25          26          27          28          29          30
           31          32          33          34          35          36          37          38          39          40
 ........................................................................................................................
   1    28.40       27.86       25.98       25.35       25.13       25.05       25.02       25.01       25.00       25.00    
        25.00       25.00       25.00       25.00       25.00       25.00       25.00       25.00       25.00       25.00    
        25.00       25.00       25.00       25.00       25.00       25.00       25.00       25.00       25.00       25.00    
        25.00       25.00       25.00       25.00       25.00       25.00       25.00       25.00       25.00       25.00    
   2    27.86       27.42       25.80       25.29       25.11       25.04       25.02       25.01       25.00       25.00    
        25.00       25.00       25.00       25.00       25.00       25.00       25.00       25.00       25.00       25.00    
        25.00       25.00       25.00       25.00       25.00       25.00       25.00       25.00       25.00       25.00    
        25.00       25.00       25.00       25.00       25.00       25.00       25.00       25.00       25.00       25.00    
   3    25.98       25.80       25.39       25.17       25.07       25.03       25.01       25.00       25.00       25.00    
        25.00       25.00       25.00       25.00       25.00       25.00       25.00       25.00       25.00       25.00    
        25.00       25.00       25.00       25.00       25.00       25.00       25.00       25.00       25.00       25.00    
        25.00       25.00       25.00       25.00       25.00       25.00       25.00       25.00       25.00       25.00    
   4    25.35       25.29       25.17       25.08       25.04       25.02       25.01       25.00       25.00       25.00    
        25.00       25.00       25.00       25.00       25.00       25.00       25.00       25.00       25.00       25.00    
        25.00       25.00       25.00       25.00       25.00       25.00       25.00       25.00       25.00       25.00    
        25.00       25.00       25.00       25.00       25.00       25.00       25.00       25.00       25.00       25.00    
   5    25.13       25.11       25.07       25.04       25.02       25.01       25.00       25.00       25.00       25.00    
        25.00       25.00       25.00       25.00       25.00       25.00       25.00       25.00       25.00       25.00    
        25.00       25.00       25.00       25.00       25.00       25.00       25.00       25.00       25.00       25.00    
        25.00       25.00       25.00       25.00       25.00       25.00       25.00       25.00       25.00       25.00    
   6    25.05       25.04       25.03       25.02       25.01       25.00       25.00       25.00       25.00       25.00    
        25.00       25.00       25.00       25.00       25.00       25.00       25.00       25.00       25.00       25.00    
        25.00       25.00       25.00       25.00       25.00       25.00       25.00       25.00       25.00       25.00    
        25.00       25.00       25.00       25.00       25.00       25.00       25.00       25.00       25.00       25.00    
   7    25.02       25.02       25.01       25.01       25.00       25.00       25.00       25.00       25.00       25.00    
        25.00       25.00       25.00       25.00       25.00       25.00       25.00       25.00       25.00       25.00    
        25.00       25.00       25.00       25.00       25.00       25.00       25.00       25.00       25.00       25.00    
        25.00       25.00       25.00       25.00       25.00       25.00       25.00       25.00       25.00       25.00    
   8    25.01       25.01       25.00       25.00       25.00       25.00       25.00       25.00       25.00       25.00    
        25.00       25.00       25.00       25.00       25.00       25.00       25.00       25.00       25.00       25.00    
        25.00       25.00       25.00       25.00       25.00       25.00       25.00       25.00       25.00       25.00    
        25.00       25.00       25.00       25.00       25.00       25.00       25.00       25.00       25.00       25.00    
   9    25.00       25.00       25.00       25.00       25.00       25.00       25.00       25.00       25.00       25.00    
        25.00       25.00       25.00       25.00       25.00       25.00       25.00       25.00       25.00       25.00    
        25.00       25.00       25.00       25.00       25.00       25.00       25.00       25.00       25.00       25.00    
        25.00       25.00       25.00       25.00       25.00       25.00       25.00       25.00       25.00       25.00    
  10    25.00       25.00       25.00       25.00       25.00       25.00       25.00       25.00       25.00       25.00    
        25.00       25.00       25.00       25.00       25.00       25.00       25.00       25.00       25.00       25.00    
        25.00       25.00       25.00       25.00       25.00       25.00       25.00       25.00       25.00       25.00    
        25.00       25.00       25.00       25.00       25.00       25.00       25.00       25.00       25.00       25.00    
  11    25.00       25.00       25.00       25.00       25.00       25.00       25.00       25.00       25.00       25.00    
        25.00       25.00       25.00       25.00       25.00       25.00       25.00       25.00       25.00       25.00    
        25.00       25.00       25.00       25.00       25.00       25.00       25.00       25.00       25.00       25.00    
        25.00       25.00       25.00       25.00       25.00       25.00       25.00       25.00       25.00       25.00    
  12    25.00       25.00       25.00       25.00       25.00       25.00       25.00       25.00       25.00       25.00    
        25.00       25.00       25.00       25.00       25.00       25.00       25.00       25.00       25.00       25.00    
        25.00       25.00       25.00       25.00       25.00       25.00       25.00       25.00       25.00       25.00    
        25.00       25.00       25.00       25.00       25.00       25.00       25.00       25.00       25.00       25.00    
  13    25.00       25.00       25.00       25.00       25.00       25.00       25.00       25.00       25.00       25.00    
        25.00       25.00       25.00       25.00       25.00       25.00       25.00       25.00       25.00       25.00    
        25.00       25.00       25.00       25.00       25.00       25.00       25.00       25.00       25.00       25.00    
        25.00       25.00       25.00       25.00       25.00       25.00       25.00       25.00       25.00       25.00    
  14    25.00       25.00       25.00       25.00       25.00       25.00       25.00       25.00       25.00       25.00    
        25.00       25.00       25.00       25.00       25.00       25.00       25.00       25.00       25.00       25.00    
        25.00       25.00       25.00       25.00       25.00       25.00       25.00       25.00       25.00       25.00    
        25.00       25.00       25.00       25.00       25.00       25.00       25.00       25.00       25.00       25.00    
  15    25.00       25.00       25.00       25.00       25.00       25.00       25.00       25.00       25.00       25.00    
        25.00       25.00       25.00       25.00       25.00       25.00       25.00       25.00       25.00       25.00    
        25.00       25.00       25.00       25.00       25.00       25.00       25.00       25.00       25.00       25.00    
        25.00       25.00       25.00       25.00       25.00       25.00       25.00       25.00       25.00       25.00    
  16    25.00       25.00       25.00       25.00       25.00       25.00       25.00       25.00       25.00       25.00    
        25.00       25.00       25.00       25.00       25.00       25.00       25.00       25.00       25.00       25.00    
        25.00       25.00       25.00       25.00       25.00       25.00       25.00       25.00       25.00       25.00    
        25.00       25.00       25.00       25.00       25.00       25.00       25.00       25.00       25.00       25.00    
  17    25.00       25.00       25.00       25.00       25.00       25.00       25.00       25.00       25.00       25.00    
        25.00       25.00       25.00       25.00       25.00       25.00       25.00       25.00       25.00       25.00    
        25.00       25.00       25.00       25.00       25.00       25.00       25.00       25.00       25.00       25.00    
        25.00       25.00       25.00       25.00       25.00       25.00       25.00       25.00       25.00       25.00    
  18    25.00       25.00       25.00       25.00       25.00       25.00       25.00       25.00       25.00       25.00    
        25.00       25.00       25.00       25.00       25.00       25.00       25.00       25.00       25.00       25.00    
        25.00       25.00       25.00       25.00       25.00       25.00       25.00       25.00       25.00       25.00    
        25.00       25.00       25.00       25.00       25.00       25.00       25.00       25.00       25.00       25.00    
  19    25.00       25.00       25.00       25.00       25.00       25.00       25.00       25.00       25.00       25.00    
        25.00       25.00       25.00       25.00       25.00       25.00       25.00       25.00       25.00       25.00    
        25.00       25.00       25.00       25.00       25.00       25.00       25.00       25.00       25.00       25.00    
        25.00       25.00       25.00       25.00       25.00       25.00       25.00       25.00       25.00       25.00    
  20    25.00       25.00       25.00       25.00       25.00       25.00       25.00       25.00       25.00       25.00    
        25.00       25.00       25.00       25.00       25.00       25.00       25.00       25.00       25.00       25.00    
        25.00       25.00       25.00       25.00       25.00       25.00       25.00       25.00       25.00       25.00    
        25.00       25.00       25.00       25.00       25.00       25.00       25.00       25.00       25.00       25.00    
  21    25.00       25.00       25.00       25.00       25.00       25.00       25.00       25.00       25.00       25.00    
        25.00       25.00       25.00       25.00       25.00       25.00       25.00       25.00       25.00       25.00    
        25.00       25.00       25.00       25.00       25.00       25.00       25.00       25.00       25.00       25.00    
        25.00       25.00       25.00       25.00       25.00       25.00       25.00       25.00       25.00       25.00    
  22    25.00       25.00       25.00       25.00       25.00       25.00       25.00       25.00       25.00       25.00    
        25.00       25.00       25.00       25.00       25.00       25.00       25.00       25.00       25.00       25.00    
        25.00       25.00       25.00       25.00       25.00       25.00       25.00       25.00       25.00       25.00    
        25.00       25.00       25.00       25.00       25.00       25.00       25.00       25.00       25.00       25.00    
  23    25.00       25.00       25.00       25.00       25.00       25.00       25.00       25.00       25.00       25.00    
        25.00       25.00       25.00       25.00       25.00       25.00       25.00       25.00       25.00       25.00    
        25.00       25.00       25.00       25.00       25.00       25.00       25.00       25.00       25.00       25.00    
        25.00       25.00       25.00       25.00       25.00       25.00       25.00       25.00       25.00       25.00    
  24    25.00       25.00       25.00       25.00       25.00       25.00       25.00       25.00       25.00       25.00    
        25.00       25.00       25.00       25.00       25.00       25.00       25.00       25.00       25.00       25.00    
        25.00       25.00       25.00       25.00       25.00       25.00       25.00       25.00       25.00       25.00    
        25.00       25.00       25.00       25.00       25.00       25.00       25.00       25.00       25.00       25.00    
  25    25.00       25.00       25.00       25.00       25.00       25.00       25.00       25.00       25.00       25.00    
        25.00       25.00       25.00       25.00       25.00       25.00       25.00       25.00       25.00       25.00    
        25.00       25.00       25.00       25.00       25.00       25.00       25.00       25.00       25.00       25.00    
        25.00       25.00       25.00       25.00       25.00       25.00       25.00       25.00       25.00       25.00    
  26    25.00       25.00       25.00       25.00       25.00       25.00       25.00       25.00       25.00       25.00    
        25.00       25.00       25.00       25.00       25.00       25.00       25.00       25.00       25.00       25.00    
        25.00       25.00       25.00       25.00       25.00       25.00       25.00       25.00       25.00       25.00    
        25.00       25.00       25.00       25.00       25.00       25.00       25.00       25.00       25.00       25.00    
  27    25.00       25.00       25.00       25.00       25.00       25.00       25.00       25.00       25.00       25.00    
        25.00       25.00       25.00       25.00       25.00       25.00       25.00       25.00       25.00       25.00    
        25.00       25.00       25.00       25.00       25.00       25.00       25.00       25.00       25.00       25.00    
        25.00       25.00       25.00       25.00       25.00       25.00       25.00       25.00       25.00       25.00    
  28    25.00       25.00       25.00       25.00       25.00       25.00       25.00       25.00       25.00       25.00    
        25.00       25.00       25.00       25.00       25.00       25.00       25.00       25.00       25.00       25.00    
        25.00       25.00       25.00       25.00       25.00       25.00       25.00       25.00       25.00       25.00    
        25.00       25.00       25.00       25.00       25.00       25.00       25.00       25.00       25.00       25.00    
  29    25.00       25.00       25.00       25.00       25.00       25.00       25.00       25.00       25.00       25.00    
        25.00       25.00       25.00       25.00       25.00       25.00       25.00       25.00       25.00       25.00    
        25.00       25.00       25.00       25.00       25.00       25.00       25.00       25.00       25.00       25.00    
        25.00       25.00       25.00       25.00       25.00       25.00       25.00       25.00       25.00       25.00    
  30    25.00       25.00       25.00       25.00       25.00       25.00       25.00       25.00       25.00       25.00    
        25.00       25.00       25.00       25.00       25.00       25.00       25.00       25.00       25.00       25.00    
        25.00       25.00       25.00       25.00       25.00       25.00       25.00       25.00       25.00       25.00    
        25.00       25.00       25.00       25.00       25.00       25.00       25.00       25.00       25.00       25.00    
  31    25.00       25.00       25.00       25.00       25.00       25.00       25.00       25.00       25.00       25.00    
        25.00       25.00       25.00       25.00       25.00       25.00       25.00       25.00       25.00       25.00    
        25.00       25.00       25.00       25.00       25.00       25.00       25.00       25.00       25.00       25.00    
        25.00       25.00       25.00       25.00       25.00       25.00       25.00       25.00       25.00       25.00    
  32    25.00       25.00       25.00       25.00       25.00       25.00       25.00       25.00       25.00       25.00    
        25.00       25.00       25.00       25.00       25.00       25.00       25.00       25.00       25.00       25.00    
        25.00       25.00       25.00       25.00       25.00       25.00       25.00       25.00       25.00       25.00    
        25.00       25.00       25.00       25.00       25.00       25.00       25.00       25.00       25.00       25.00    
  33    25.00       25.00       25.00       25.00       25.00       25.00       25.00       25.00       25.00       25.00    
        25.00       25.00       25.00       25.00       25.00       25.00       25.00       25.00       25.00       25.00    
        25.00       25.00       25.00       25.00       25.00       25.00       25.00       25.00       25.00       25.00    
        25.00       25.00       25.00       25.00       25.00       25.00       25.00       25.00       25.00       25.00    
  34    25.00       25.00       25.00       25.00       25.00       25.00       25.00       25.00       25.00       25.00    
        25.00       25.00       25.00       25.00       25.00       25.00       25.00       25.00       25.00       25.00    
        25.00       25.00       25.00       25.00       25.00       25.00       25.00       25.00       25.00       25.00    
        25.00       25.00       25.00       25.00       25.00       25.00       25.00       25.00       25.00       25.00    
  35    25.00       25.00       25.00       25.00       25.00       25.00       25.00       25.00       25.00       25.00    
        25.00       25.00       25.00       25.00       25.00       25.00       25.00       25.00       25.00       25.00    
        25.00       25.00       25.00       25.00       25.00       25.00       25.00       25.00       25.00       25.00    
        25.00       25.00       25.00       25.00       25.00       25.00       25.00       25.00       25.00       25.00    
  36    25.00       25.00       25.00       25.00       25.00       25.00       25.00       25.00       25.00       25.00    
        25.00       25.00       25.00       25.00       25.00       25.00       25.00       25.00       25.00       25.00    
        25.00       25.00       25.00       25.00       25.00       25.00       25.00       25.00       25.00       25.00    
        25.00       25.00       25.00       25.00       25.00       25.00       25.00       25.00       25.00       25.00    
  37    25.00       25.00       25.00       25.00       25.00       25.00       25.00       25.00       25.00       25.00    
        25.00       25.00       25.00       25.00       25.00       25.00       25.00       25.00       25.00       25.00    
        25.00       25.00       25.00       25.00       25.00       25.00       25.00       25.00       25.00       25.00    
        25.00       25.00       25.00       25.00       25.00       25.00       25.00       25.00       25.00       25.00    
  38    25.00       25.00       25.00       25.00       25.00       25.00       25.00       25.00       25.00       25.00    
        25.00       25.00       25.00       25.00       25.00       25.00       25.00       25.00       25.00       25.00    
        25.00       25.00       25.00       25.00       25.00       25.00       25.00       25.00       25.00       25.00    
        25.00       25.00       25.00       25.00       25.00       25.00       25.00       25.00       25.00       25.00    
  39    25.00       25.00       25.00       25.00       25.00       25.00       25.00       25.00       25.00       25.00    
        25.00       25.00       25.00       25.00       25.00       25.00       25.00       25.00       25.00       25.00    
        25.00       25.00       25.00       25.00       25.00       25.00       25.00       25.00       25.00       25.00    
        25.00       25.00       25.00       25.00       25.00       25.00       25.00       25.00       25.00       25.00    
  40    25.00       25.00       25.00       25.00       25.00       25.00       25.00       25.00       25.00       25.00    
        25.00       25.00       25.00       25.00       25.00       25.00       25.00       25.00       25.00       25.00    
        25.00       25.00       25.00       25.00       25.00       25.00       25.00       25.00       25.00       25.00    
        25.00       25.00       25.00       25.00       25.00       25.00       25.00       25.00       25.00       25.00    
1
              HEAD IN LAYER  12 AT END OF TIME STEP   1 IN STRESS PERIOD    1
  ---------------------------------------------------------------------------

            1           2           3           4           5           6           7           8           9          10
           11          12          13          14          15          16          17          18          19          20
           21          22          23          24          25          26          27          28          29          30
           31          32          33          34          35          36          37          38          39          40
 ........................................................................................................................
   1    28.28       27.71       26.05       25.38       25.14       25.05       25.02       25.01       25.00       25.00    
        25.00       25.00       25.00       25.00       25.00       25.00       25.00       25.00       25.00       25.00    
        25.00       25.00       25.00       25.00       25.00       25.00       25.00       25.00       25.00       25.00    
        25.00       25.00       25.00       25.00       25.00       25.00       25.00       25.00       25.00       25.00    
   2    27.71       27.26       25.85       25.31       25.12       25.04       25.02       25.01       25.00       25.00    
        25.00       25.00       25.00       25.00       25.00       25.00       25.00       25.00       25.00       25.00    
        25.00       25.00       25.00       25.00       25.00       25.00       25.00       25.00       25.00       25.00    
        25.00       25.00       25.00       25.00       25.00       25.00       25.00       25.00       25.00       25.00    
   3    26.05       25.85       25.42       25.18       25.08       25.03       25.01       25.00       25.00       25.00    
        25.00       25.00       25.00       25.00       25.00       25.00       25.00       25.00       25.00       25.00    
        25.00       25.00       25.00       25.00       25.00       25.00       25.00       25.00       25.00       25.00    
        25.00       25.00       25.00       25.00       25.00       25.00       25.00       25.00       25.00       25.00    
   4    25.38       25.31       25.18       25.09       25.04       25.02       25.01       25.00       25.00       25.00    
        25.00       25.00       25.00       25.00       25.00       25.00       25.00       25.00       25.00       25.00    
        25.00       25.00       25.00       25.00       25.00       25.00       25.00       25.00       25.00       25.00    
        25.00       25.00       25.00       25.00       25.00       25.00       25.00       25.00       25.00       25.00    
   5    25.14       25.12       25.08       25.04       25.02       25.01       25.00       25.00       25.00       25.00    
        25.00       25.00       25.00       25.00       25.00       25.00       25.00       25.00       25.00       25.00    
        25.00       25.00       25.00       25.00       25.00       25.00       25.00       25.00       25.00       25.00    
        25.00       25.00       25.00       25.00       25.00       25.00       25.00       25.00       25.00       25.00    
   6    25.05       25.04       25.03       25.02       25.01       25.00       25.00       25.00       25.00       25.00    
        25.00       25.00       25.00       25.00       25.00       25.00       25.00       25.00       25.00       25.00    
        25.00       25.00       25.00       25.00       25.00       25.00       25.00       25.00       25.00       25.00    
        25.00       25.00       25.00       25.00       25.00       25.00       25.00       25.00       25.00       25.00    
   7    25.02       25.02       25.01       25.01       25.00       25.00       25.00       25.00       25.00       25.00    
        25.00       25.00       25.00       25.00       25.00       25.00       25.00       25.00       25.00       25.00    
        25.00       25.00       25.00       25.00       25.00       25.00       25.00       25.00       25.00       25.00    
        25.00       25.00       25.00       25.00       25.00       25.00       25.00       25.00       25.00       25.00    
   8    25.01       25.01       25.00       25.00       25.00       25.00       25.00       25.00       25.00       25.00    
        25.00       25.00       25.00       25.00       25.00       25.00       25.00       25.00       25.00       25.00    
        25.00       25.00       25.00       25.00       25.00       25.00       25.00       25.00       25.00       25.00    
        25.00       25.00       25.00       25.00       25.00       25.00       25.00       25.00       25.00       25.00    
   9    25.00       25.00       25.00       25.00       25.00       25.00       25.00       25.00       25.00       25.00    
        25.00       25.00       25.00       25.00       25.00       25.00       25.00       25.00       25.00       25.00    
        25.00       25.00       25.00       25.00       25.00       25.00       25.00       25.00       25.00       25.00    
        25.00       25.00       25.00       25.00       25.00       25.00       25.00       25.00       25.00       25.00    
  10    25.00       25.00       25.00       25.00       25.00       25.00       25.00       25.00       25.00       25.00    
        25.00       25.00       25.00       25.00       25.00       25.00       25.00       25.00       25.00       25.00    
        25.00       25.00       25.00       25.00       25.00       25.00       25.00       25.00       25.00       25.00    
        25.00       25.00       25.00       25.00       25.00       25.00       25.00       25.00       25.00       25.00    
  11    25.00       25.00       25.00       25.00       25.00       25.00       25.00       25.00       25.00       25.00    
        25.00       25.00       25.00       25.00       25.00       25.00       25.00       25.00       25.00       25.00    
        25.00       25.00       25.00       25.00       25.00       25.00       25.00       25.00       25.00       25.00    
        25.00       25.00       25.00       25.00       25.00       25.00       25.00       25.00       25.00       25.00    
  12    25.00       25.00       25.00       25.00       25.00       25.00       25.00       25.00       25.00       25.00    
        25.00       25.00       25.00       25.00       25.00       25.00       25.00       25.00       25.00       25.00    
        25.00       25.00       25.00       25.00       25.00       25.00       25.00       25.00       25.00       25.00    
        25.00       25.00       25.00       25.00       25.00       25.00       25.00       25.00       25.00       25.00    
  13    25.00       25.00       25.00       25.00       25.00       25.00       25.00       25.00       25.00       25.00    
        25.00       25.00       25.00       25.00       25.00       25.00       25.00       25.00       25.00       25.00    
        25.00       25.00       25.00       25.00       25.00       25.00       25.00       25.00       25.00       25.00    
        25.00       25.00       25.00       25.00       25.00       25.00       25.00       25.00       25.00       25.00    
  14    25.00       25.00       25.00       25.00       25.00       25.00       25.00       25.00       25.00       25.00    
        25.00       25.00       25.00       25.00       25.00       25.00       25.00       25.00       25.00       25.00    
        25.00       25.00       25.00       25.00       25.00       25.00       25.00       25.00       25.00       25.00    
        25.00       25.00       25.00       25.00       25.00       25.00       25.00       25.00       25.00       25.00    
  15    25.00       25.00       25.00       25.00       25.00       25.00       25.00       25.00       25.00       25.00    
        25.00       25.00       25.00       25.00       25.00       25.00       25.00       25.00       25.00       25.00    
        25.00       25.00       25.00       25.00       25.00       25.00       25.00       25.00       25.00       25.00    
        25.00       25.00       25.00       25.00       25.00       25.00       25.00       25.00       25.00       25.00    
  16    25.00       25.00       25.00       25.00       25.00       25.00       25.00       25.00       25.00       25.00    
        25.00       25.00       25.00       25.00       25.00       25.00       25.00       25.00       25.00       25.00    
        25.00       25.00       25.00       25.00       25.00       25.00       25.00       25.00       25.00       25.00    
        25.00       25.00       25.00       25.00       25.00       25.00       25.00       25.00       25.00       25.00    
  17    25.00       25.00       25.00       25.00       25.00       25.00       25.00       25.00       25.00       25.00    
        25.00       25.00       25.00       25.00       25.00       25.00       25.00       25.00       25.00       25.00    
        25.00       25.00       25.00       25.00       25.00       25.00       25.00       25.00       25.00       25.00    
        25.00       25.00       25.00       25.00       25.00       25.00       25.00       25.00       25.00       25.00    
  18    25.00       25.00       25.00       25.00       25.00       25.00       25.00       25.00       25.00       25.00    
        25.00       25.00       25.00       25.00       25.00       25.00       25.00       25.00       25.00       25.00    
        25.00       25.00       25.00       25.00       25.00       25.00       25.00       25.00       25.00       25.00    
        25.00       25.00       25.00       25.00       25.00       25.00       25.00       25.00       25.00       25.00    
  19    25.00       25.00       25.00       25.00       25.00       25.00       25.00       25.00       25.00       25.00    
        25.00       25.00       25.00       25.00       25.00       25.00       25.00       25.00       25.00       25.00    
        25.00       25.00       25.00       25.00       25.00       25.00       25.00       25.00       25.00       25.00    
        25.00       25.00       25.00       25.00       25.00       25.00       25.00       25.00       25.00       25.00    
  20    25.00       25.00       25.00       25.00       25.00       25.00       25.00       25.00       25.00       25.00    
        25.00       25.00       25.00       25.00       25.00       25.00       25.00       25.00       25.00       25.00    
        25.00       25.00       25.00       25.00       25.00       25.00       25.00       25.00       25.00       25.00    
        25.00       25.00       25.00       25.00       25.00       25.00       25.00       25.00       25.00       25.00    
  21    25.00       25.00       25.00       25.00       25.00       25.00       25.00       25.00       25.00       25.00    
        25.00       25.00       25.00       25.00       25.00       25.00       25.00       25.00       25.00       25.00    
        25.00       25.00       25.00       25.00       25.00       25.00       25.00       25.00       25.00       25.00    
        25.00       25.00       25.00       25.00       25.00       25.00       25.00       25.00       25.00       25.00    
  22    25.00       25.00       25.00       25.00       25.00       25.00       25.00       25.00       25.00       25.00    
        25.00       25.00       25.00       25.00       25.00       25.00       25.00       25.00       25.00       25.00    
        25.00       25.00       25.00       25.00       25.00       25.00       25.00       25.00       25.00       25.00    
        25.00       25.00       25.00       25.00       25.00       25.00       25.00       25.00       25.00       25.00    
  23    25.00       25.00       25.00       25.00       25.00       25.00       25.00       25.00       25.00       25.00    
        25.00       25.00       25.00       25.00       25.00       25.00       25.00       25.00       25.00       25.00    
        25.00       25.00       25.00       25.00       25.00       25.00       25.00       25.00       25.00       25.00    
        25.00       25.00       25.00       25.00       25.00       25.00       25.00       25.00       25.00       25.00    
  24    25.00       25.00       25.00       25.00       25.00       25.00       25.00       25.00       25.00       25.00    
        25.00       25.00       25.00       25.00       25.00       25.00       25.00       25.00       25.00       25.00    
        25.00       25.00       25.00       25.00       25.00       25.00       25.00       25.00       25.00       25.00    
        25.00       25.00       25.00       25.00       25.00       25.00       25.00       25.00       25.00       25.00    
  25    25.00       25.00       25.00       25.00       25.00       25.00       25.00       25.00       25.00       25.00    
        25.00       25.00       25.00       25.00       25.00       25.00       25.00       25.00       25.00       25.00    
        25.00       25.00       25.00       25.00       25.00       25.00       25.00       25.00       25.00       25.00    
        25.00       25.00       25.00       25.00       25.00       25.00       25.00       25.00       25.00       25.00    
  26    25.00       25.00       25.00       25.00       25.00       25.00       25.00       25.00       25.00       25.00    
        25.00       25.00       25.00       25.00       25.00       25.00       25.00       25.00       25.00       25.00    
        25.00       25.00       25.00       25.00       25.00       25.00       25.00       25.00       25.00       25.00    
        25.00       25.00       25.00       25.00       25.00       25.00       25.00       25.00       25.00       25.00    
  27    25.00       25.00       25.00       25.00       25.00       25.00       25.00       25.00       25.00       25.00    
        25.00       25.00       25.00       25.00       25.00       25.00       25.00       25.00       25.00       25.00    
        25.00       25.00       25.00       25.00       25.00       25.00       25.00       25.00       25.00       25.00    
        25.00       25.00       25.00       25.00       25.00       25.00       25.00       25.00       25.00       25.00    
  28    25.00       25.00       25.00       25.00       25.00       25.00       25.00       25.00       25.00       25.00    
        25.00       25.00       25.00       25.00       25.00       25.00       25.00       25.00       25.00       25.00    
        25.00       25.00       25.00       25.00       25.00       25.00       25.00       25.00       25.00       25.00    
        25.00       25.00       25.00       25.00       25.00       25.00       25.00       25.00       25.00       25.00    
  29    25.00       25.00       25.00       25.00       25.00       25.00       25.00       25.00       25.00       25.00    
        25.00       25.00       25.00       25.00       25.00       25.00       25.00       25.00       25.00       25.00    
        25.00       25.00       25.00       25.00       25.00       25.00       25.00       25.00       25.00       25.00    
        25.00       25.00       25.00       25.00       25.00       25.00       25.00       25.00       25.00       25.00    
  30    25.00       25.00       25.00       25.00       25.00       25.00       25.00       25.00       25.00       25.00    
        25.00       25.00       25.00       25.00       25.00       25.00       25.00       25.00       25.00       25.00    
        25.00       25.00       25.00       25.00       25.00       25.00       25.00       25.00       25.00       25.00    
        25.00       25.00       25.00       25.00       25.00       25.00       25.00       25.00       25.00       25.00    
  31    25.00       25.00       25.00       25.00       25.00       25.00       25.00       25.00       25.00       25.00    
        25.00       25.00       25.00       25.00       25.00       25.00       25.00       25.00       25.00       25.00    
        25.00       25.00       25.00       25.00       25.00       25.00       25.00       25.00       25.00       25.00    
        25.00       25.00       25.00       25.00       25.00       25.00       25.00       25.00       25.00       25.00    
  32    25.00       25.00       25.00       25.00       25.00       25.00       25.00       25.00       25.00       25.00    
        25.00       25.00       25.00       25.00       25.00       25.00       25.00       25.00       25.00       25.00    
        25.00       25.00       25.00       25.00       25.00       25.00       25.00       25.00       25.00       25.00    
        25.00       25.00       25.00       25.00       25.00       25.00       25.00       25.00       25.00       25.00    
  33    25.00       25.00       25.00       25.00       25.00       25.00       25.00       25.00       25.00       25.00    
        25.00       25.00       25.00       25.00       25.00       25.00       25.00       25.00       25.00       25.00    
        25.00       25.00       25.00       25.00       25.00       25.00       25.00       25.00       25.00       25.00    
        25.00       25.00       25.00       25.00       25.00       25.00       25.00       25.00       25.00       25.00    
  34    25.00       25.00       25.00       25.00       25.00       25.00       25.00       25.00       25.00       25.00    
        25.00       25.00       25.00       25.00       25.00       25.00       25.00       25.00       25.00       25.00    
        25.00       25.00       25.00       25.00       25.00       25.00       25.00       25.00       25.00       25.00    
        25.00       25.00       25.00       25.00       25.00       25.00       25.00       25.00       25.00       25.00    
  35    25.00       25.00       25.00       25.00       25.00       25.00       25.00       25.00       25.00       25.00    
        25.00       25.00       25.00       25.00       25.00       25.00       25.00       25.00       25.00       25.00    
        25.00       25.00       25.00       25.00       25.00       25.00       25.00       25.00       25.00       25.00    
        25.00       25.00       25.00       25.00       25.00       25.00       25.00       25.00       25.00       25.00    
  36    25.00       25.00       25.00       25.00       25.00       25.00       25.00       25.00       25.00       25.00    
        25.00       25.00       25.00       25.00       25.00       25.00       25.00       25.00       25.00       25.00    
        25.00       25.00       25.00       25.00       25.00       25.00       25.00       25.00       25.00       25.00    
        25.00       25.00       25.00       25.00       25.00       25.00       25.00       25.00       25.00       25.00    
  37    25.00       25.00       25.00       25.00       25.00       25.00       25.00       25.00       25.00       25.00    
        25.00       25.00       25.00       25.00       25.00       25.00       25.00       25.00       25.00       25.00    
        25.00       25.00       25.00       25.00       25.00       25.00       25.00       25.00       25.00       25.00    
        25.00       25.00       25.00       25.00       25.00       25.00       25.00       25.00       25.00       25.00    
  38    25.00       25.00       25.00       25.00       25.00       25.00       25.00       25.00       25.00       25.00    
        25.00       25.00       25.00       25.00       25.00       25.00       25.00       25.00       25.00       25.00    
        25.00       25.00       25.00       25.00       25.00       25.00       25.00       25.00       25.00       25.00    
        25.00       25.00       25.00       25.00       25.00       25.00       25.00       25.00       25.00       25.00    
  39    25.00       25.00       25.00       25.00       25.00       25.00       25.00       25.00       25.00       25.00    
        25.00       25.00       25.00       25.00       25.00       25.00       25.00       25.00       25.00       25.00    
        25.00       25.00       25.00       25.00       25.00       25.00       25.00       25.00       25.00       25.00    
        25.00       25.00       25.00       25.00       25.00       25.00       25.00       25.00       25.00       25.00    
  40    25.00       25.00       25.00       25.00       25.00       25.00       25.00       25.00       25.00       25.00    
        25.00       25.00       25.00       25.00       25.00       25.00       25.00       25.00       25.00       25.00    
        25.00       25.00       25.00       25.00       25.00       25.00       25.00       25.00       25.00       25.00    
        25.00       25.00       25.00       25.00       25.00       25.00       25.00       25.00       25.00       25.00    
1
              HEAD IN LAYER  13 AT END OF TIME STEP   1 IN STRESS PERIOD    1
  ---------------------------------------------------------------------------

            1           2           3           4           5           6           7           8           9          10
           11          12          13          14          15          16          17          18          19          20
           21          22          23          24          25          26          27          28          29          30
           31          32          33          34          35          36          37          38          39          40
 ........................................................................................................................
   1    28.20       27.62       26.08       25.40       25.15       25.06       25.02       25.01       25.00       25.00    
        25.00       25.00       25.00       25.00       25.00       25.00       25.00       25.00       25.00       25.00    
        25.00       25.00       25.00       25.00       25.00       25.00       25.00       25.00       25.00       25.00    
        25.00       25.00       25.00       25.00       25.00       25.00       25.00       25.00       25.00       25.00    
   2    27.62       27.15       25.88       25.33       25.12       25.05       25.02       25.01       25.00       25.00    
        25.00       25.00       25.00       25.00       25.00       25.00       25.00       25.00       25.00       25.00    
        25.00       25.00       25.00       25.00       25.00       25.00       25.00       25.00       25.00       25.00    
        25.00       25.00       25.00       25.00       25.00       25.00       25.00       25.00       25.00       25.00    
   3    26.08       25.88       25.44       25.19       25.08       25.03       25.01       25.01       25.00       25.00    
        25.00       25.00       25.00       25.00       25.00       25.00       25.00       25.00       25.00       25.00    
        25.00       25.00       25.00       25.00       25.00       25.00       25.00       25.00       25.00       25.00    
        25.00       25.00       25.00       25.00       25.00       25.00       25.00       25.00       25.00       25.00    
   4    25.40       25.33       25.19       25.10       25.04       25.02       25.01       25.00       25.00       25.00    
        25.00       25.00       25.00       25.00       25.00       25.00       25.00       25.00       25.00       25.00    
        25.00       25.00       25.00       25.00       25.00       25.00       25.00       25.00       25.00       25.00    
        25.00       25.00       25.00       25.00       25.00       25.00       25.00       25.00       25.00       25.00    
   5    25.15       25.12       25.08       25.04       25.02       25.01       25.00       25.00       25.00       25.00    
        25.00       25.00       25.00       25.00       25.00       25.00       25.00       25.00       25.00       25.00    
        25.00       25.00       25.00       25.00       25.00       25.00       25.00       25.00       25.00       25.00    
        25.00       25.00       25.00       25.00       25.00       25.00       25.00       25.00       25.00       25.00    
   6    25.06       25.05       25.03       25.02       25.01       25.01       25.00       25.00       25.00       25.00    
        25.00       25.00       25.00       25.00       25.00       25.00       25.00       25.00       25.00       25.00    
        25.00       25.00       25.00       25.00       25.00       25.00       25.00       25.00       25.00       25.00    
        25.00       25.00       25.00       25.00       25.00       25.00       25.00       25.00       25.00       25.00    
   7    25.02       25.02       25.01       25.01       25.00       25.00       25.00       25.00       25.00       25.00    
        25.00       25.00       25.00       25.00       25.00       25.00       25.00       25.00       25.00       25.00    
        25.00       25.00       25.00       25.00       25.00       25.00       25.00       25.00       25.00       25.00    
        25.00       25.00       25.00       25.00       25.00       25.00       25.00       25.00       25.00       25.00    
   8    25.01       25.01       25.01       25.00       25.00       25.00       25.00       25.00       25.00       25.00    
        25.00       25.00       25.00       25.00       25.00       25.00       25.00       25.00       25.00       25.00    
        25.00       25.00       25.00       25.00       25.00       25.00       25.00       25.00       25.00       25.00    
        25.00       25.00       25.00       25.00       25.00       25.00       25.00       25.00       25.00       25.00    
   9    25.00       25.00       25.00       25.00       25.00       25.00       25.00       25.00       25.00       25.00    
        25.00       25.00       25.00       25.00       25.00       25.00       25.00       25.00       25.00       25.00    
        25.00       25.00       25.00       25.00       25.00       25.00       25.00       25.00       25.00       25.00    
        25.00       25.00       25.00       25.00       25.00       25.00       25.00       25.00       25.00       25.00    
  10    25.00       25.00       25.00       25.00       25.00       25.00       25.00       25.00       25.00       25.00    
        25.00       25.00       25.00       25.00       25.00       25.00       25.00       25.00       25.00       25.00    
        25.00       25.00       25.00       25.00       25.00       25.00       25.00       25.00       25.00       25.00    
        25.00       25.00       25.00       25.00       25.00       25.00       25.00       25.00       25.00       25.00    
  11    25.00       25.00       25.00       25.00       25.00       25.00       25.00       25.00       25.00       25.00    
        25.00       25.00       25.00       25.00       25.00       25.00       25.00       25.00       25.00       25.00    
        25.00       25.00       25.00       25.00       25.00       25.00       25.00       25.00       25.00       25.00    
        25.00       25.00       25.00       25.00       25.00       25.00       25.00       25.00       25.00       25.00    
  12    25.00       25.00       25.00       25.00       25.00       25.00       25.00       25.00       25.00       25.00    
        25.00       25.00       25.00       25.00       25.00       25.00       25.00       25.00       25.00       25.00    
        25.00       25.00       25.00       25.00       25.00       25.00       25.00       25.00       25.00       25.00    
        25.00       25.00       25.00       25.00       25.00       25.00       25.00       25.00       25.00       25.00    
  13    25.00       25.00       25.00       25.00       25.00       25.00       25.00       25.00       25.00       25.00    
        25.00       25.00       25.00       25.00       25.00       25.00       25.00       25.00       25.00       25.00    
        25.00       25.00       25.00       25.00       25.00       25.00       25.00       25.00       25.00       25.00    
        25.00       25.00       25.00       25.00       25.00       25.00       25.00       25.00       25.00       25.00    
  14    25.00       25.00       25.00       25.00       25.00       25.00       25.00       25.00       25.00       25.00    
        25.00       25.00       25.00       25.00       25.00       25.00       25.00       25.00       25.00       25.00    
        25.00       25.00       25.00       25.00       25.00       25.00       25.00       25.00       25.00       25.00    
        25.00       25.00       25.00       25.00       25.00       25.00       25.00       25.00       25.00       25.00    
  15    25.00       25.00       25.00       25.00       25.00       25.00       25.00       25.00       25.00       25.00    
        25.00       25.00       25.00       25.00       25.00       25.00       25.00       25.00       25.00       25.00    
        25.00       25.00       25.00       25.00       25.00       25.00       25.00       25.00       25.00       25.00    
        25.00       25.00       25.00       25.00       25.00       25.00       25.00       25.00       25.00       25.00    
  16    25.00       25.00       25.00       25.00       25.00       25.00       25.00       25.00       25.00       25.00    
        25.00       25.00       25.00       25.00       25.00       25.00       25.00       25.00       25.00       25.00    
        25.00       25.00       25.00       25.00       25.00       25.00       25.00       25.00       25.00       25.00    
        25.00       25.00       25.00       25.00       25.00       25.00       25.00       25.00       25.00       25.00    
  17    25.00       25.00       25.00       25.00       25.00       25.00       25.00       25.00       25.00       25.00    
        25.00       25.00       25.00       25.00       25.00       25.00       25.00       25.00       25.00       25.00    
        25.00       25.00       25.00       25.00       25.00       25.00       25.00       25.00       25.00       25.00    
        25.00       25.00       25.00       25.00       25.00       25.00       25.00       25.00       25.00       25.00    
  18    25.00       25.00       25.00       25.00       25.00       25.00       25.00       25.00       25.00       25.00    
        25.00       25.00       25.00       25.00       25.00       25.00       25.00       25.00       25.00       25.00    
        25.00       25.00       25.00       25.00       25.00       25.00       25.00       25.00       25.00       25.00    
        25.00       25.00       25.00       25.00       25.00       25.00       25.00       25.00       25.00       25.00    
  19    25.00       25.00       25.00       25.00       25.00       25.00       25.00       25.00       25.00       25.00    
        25.00       25.00       25.00       25.00       25.00       25.00       25.00       25.00       25.00       25.00    
        25.00       25.00       25.00       25.00       25.00       25.00       25.00       25.00       25.00       25.00    
        25.00       25.00       25.00       25.00       25.00       25.00       25.00       25.00       25.00       25.00    
  20    25.00       25.00       25.00       25.00       25.00       25.00       25.00       25.00       25.00       25.00    
        25.00       25.00       25.00       25.00       25.00       25.00       25.00       25.00       25.00       25.00    
        25.00       25.00       25.00       25.00       25.00       25.00       25.00       25.00       25.00       25.00    
        25.00       25.00       25.00       25.00       25.00       25.00       25.00       25.00       25.00       25.00    
  21    25.00       25.00       25.00       25.00       25.00       25.00       25.00       25.00       25.00       25.00    
        25.00       25.00       25.00       25.00       25.00       25.00       25.00       25.00       25.00       25.00    
        25.00       25.00       25.00       25.00       25.00       25.00       25.00       25.00       25.00       25.00    
        25.00       25.00       25.00       25.00       25.00       25.00       25.00       25.00       25.00       25.00    
  22    25.00       25.00       25.00       25.00       25.00       25.00       25.00       25.00       25.00       25.00    
        25.00       25.00       25.00       25.00       25.00       25.00       25.00       25.00       25.00       25.00    
        25.00       25.00       25.00       25.00       25.00       25.00       25.00       25.00       25.00       25.00    
        25.00       25.00       25.00       25.00       25.00       25.00       25.00       25.00       25.00       25.00    
  23    25.00       25.00       25.00       25.00       25.00       25.00       25.00       25.00       25.00       25.00    
        25.00       25.00       25.00       25.00       25.00       25.00       25.00       25.00       25.00       25.00    
        25.00       25.00       25.00       25.00       25.00       25.00       25.00       25.00       25.00       25.00    
        25.00       25.00       25.00       25.00       25.00       25.00       25.00       25.00       25.00       25.00    
  24    25.00       25.00       25.00       25.00       25.00       25.00       25.00       25.00       25.00       25.00    
        25.00       25.00       25.00       25.00       25.00       25.00       25.00       25.00       25.00       25.00    
        25.00       25.00       25.00       25.00       25.00       25.00       25.00       25.00       25.00       25.00    
        25.00       25.00       25.00       25.00       25.00       25.00       25.00       25.00       25.00       25.00    
  25    25.00       25.00       25.00       25.00       25.00       25.00       25.00       25.00       25.00       25.00    
        25.00       25.00       25.00       25.00       25.00       25.00       25.00       25.00       25.00       25.00    
        25.00       25.00       25.00       25.00       25.00       25.00       25.00       25.00       25.00       25.00    
        25.00       25.00       25.00       25.00       25.00       25.00       25.00       25.00       25.00       25.00    
  26    25.00       25.00       25.00       25.00       25.00       25.00       25.00       25.00       25.00       25.00    
        25.00       25.00       25.00       25.00       25.00       25.00       25.00       25.00       25.00       25.00    
        25.00       25.00       25.00       25.00       25.00       25.00       25.00       25.00       25.00       25.00    
        25.00       25.00       25.00       25.00       25.00       25.00       25.00       25.00       25.00       25.00    
  27    25.00       25.00       25.00       25.00       25.00       25.00       25.00       25.00       25.00       25.00    
        25.00       25.00       25.00       25.00       25.00       25.00       25.00       25.00       25.00       25.00    
        25.00       25.00       25.00       25.00       25.00       25.00       25.00       25.00       25.00       25.00    
        25.00       25.00       25.00       25.00       25.00       25.00       25.00       25.00       25.00       25.00    
  28    25.00       25.00       25.00       25.00       25.00       25.00       25.00       25.00       25.00       25.00    
        25.00       25.00       25.00       25.00       25.00       25.00       25.00       25.00       25.00       25.00    
        25.00       25.00       25.00       25.00       25.00       25.00       25.00       25.00       25.00       25.00    
        25.00       25.00       25.00       25.00       25.00       25.00       25.00       25.00       25.00       25.00    
  29    25.00       25.00       25.00       25.00       25.00       25.00       25.00       25.00       25.00       25.00    
        25.00       25.00       25.00       25.00       25.00       25.00       25.00       25.00       25.00       25.00    
        25.00       25.00       25.00       25.00       25.00       25.00       25.00       25.00       25.00       25.00    
        25.00       25.00       25.00       25.00       25.00       25.00       25.00       25.00       25.00       25.00    
  30    25.00       25.00       25.00       25.00       25.00       25.00       25.00       25.00       25.00       25.00    
        25.00       25.00       25.00       25.00       25.00       25.00       25.00       25.00       25.00       25.00    
        25.00       25.00       25.00       25.00       25.00       25.00       25.00       25.00       25.00       25.00    
        25.00       25.00       25.00       25.00       25.00       25.00       25.00       25.00       25.00       25.00    
  31    25.00       25.00       25.00       25.00       25.00       25.00       25.00       25.00       25.00       25.00    
        25.00       25.00       25.00       25.00       25.00       25.00       25.00       25.00       25.00       25.00    
        25.00       25.00       25.00       25.00       25.00       25.00       25.00       25.00       25.00       25.00    
        25.00       25.00       25.00       25.00       25.00       25.00       25.00       25.00       25.00       25.00    
  32    25.00       25.00       25.00       25.00       25.00       25.00       25.00       25.00       25.00       25.00    
        25.00       25.00       25.00       25.00       25.00       25.00       25.00       25.00       25.00       25.00    
        25.00       25.00       25.00       25.00       25.00       25.00       25.00       25.00       25.00       25.00    
        25.00       25.00       25.00       25.00       25.00       25.00       25.00       25.00       25.00       25.00    
  33    25.00       25.00       25.00       25.00       25.00       25.00       25.00       25.00       25.00       25.00    
        25.00       25.00       25.00       25.00       25.00       25.00       25.00       25.00       25.00       25.00    
        25.00       25.00       25.00       25.00       25.00       25.00       25.00       25.00       25.00       25.00    
        25.00       25.00       25.00       25.00       25.00       25.00       25.00       25.00       25.00       25.00    
  34    25.00       25.00       25.00       25.00       25.00       25.00       25.00       25.00       25.00       25.00    
        25.00       25.00       25.00       25.00       25.00       25.00       25.00       25.00       25.00       25.00    
        25.00       25.00       25.00       25.00       25.00       25.00       25.00       25.00       25.00       25.00    
        25.00       25.00       25.00       25.00       25.00       25.00       25.00       25.00       25.00       25.00    
  35    25.00       25.00       25.00       25.00       25.00       25.00       25.00       25.00       25.00       25.00    
        25.00       25.00       25.00       25.00       25.00       25.00       25.00       25.00       25.00       25.00    
        25.00       25.00       25.00       25.00       25.00       25.00       25.00       25.00       25.00       25.00    
        25.00       25.00       25.00       25.00       25.00       25.00       25.00       25.00       25.00       25.00    
  36    25.00       25.00       25.00       25.00       25.00       25.00       25.00       25.00       25.00       25.00    
        25.00       25.00       25.00       25.00       25.00       25.00       25.00       25.00       25.00       25.00    
        25.00       25.00       25.00       25.00       25.00       25.00       25.00       25.00       25.00       25.00    
        25.00       25.00       25.00       25.00       25.00       25.00       25.00       25.00       25.00       25.00    
  37    25.00       25.00       25.00       25.00       25.00       25.00       25.00       25.00       25.00       25.00    
        25.00       25.00       25.00       25.00       25.00       25.00       25.00       25.00       25.00       25.00    
        25.00       25.00       25.00       25.00       25.00       25.00       25.00       25.00       25.00       25.00    
        25.00       25.00       25.00       25.00       25.00       25.00       25.00       25.00       25.00       25.00    
  38    25.00       25.00       25.00       25.00       25.00       25.00       25.00       25.00       25.00       25.00    
        25.00       25.00       25.00       25.00       25.00       25.00       25.00       25.00       25.00       25.00    
        25.00       25.00       25.00       25.00       25.00       25.00       25.00       25.00       25.00       25.00    
        25.00       25.00       25.00       25.00       25.00       25.00       25.00       25.00       25.00       25.00    
  39    25.00       25.00       25.00       25.00       25.00       25.00       25.00       25.00       25.00       25.00    
        25.00       25.00       25.00       25.00       25.00       25.00       25.00       25.00       25.00       25.00    
        25.00       25.00       25.00       25.00       25.00       25.00       25.00       25.00       25.00       25.00    
        25.00       25.00       25.00       25.00       25.00       25.00       25.00       25.00       25.00       25.00    
  40    25.00       25.00       25.00       25.00       25.00       25.00       25.00       25.00       25.00       25.00    
        25.00       25.00       25.00       25.00       25.00       25.00       25.00       25.00       25.00       25.00    
        25.00       25.00       25.00       25.00       25.00       25.00       25.00       25.00       25.00       25.00    
        25.00       25.00       25.00       25.00       25.00       25.00       25.00       25.00       25.00       25.00    
1
              HEAD IN LAYER  14 AT END OF TIME STEP   1 IN STRESS PERIOD    1
  ---------------------------------------------------------------------------

            1           2           3           4           5           6           7           8           9          10
           11          12          13          14          15          16          17          18          19          20
           21          22          23          24          25          26          27          28          29          30
           31          32          33          34          35          36          37          38          39          40
 ........................................................................................................................
   1    28.15       27.57       26.10       25.42       25.15       25.06       25.02       25.01       25.00       25.00    
        25.00       25.00       25.00       25.00       25.00       25.00       25.00       25.00       25.00       25.00    
        25.00       25.00       25.00       25.00       25.00       25.00       25.00       25.00       25.00       25.00    
        25.00       25.00       25.00       25.00       25.00       25.00       25.00       25.00       25.00       25.00    
   2    27.57       27.10       25.89       25.34       25.13       25.05       25.02       25.01       25.00       25.00    
        25.00       25.00       25.00       25.00       25.00       25.00       25.00       25.00       25.00       25.00    
        25.00       25.00       25.00       25.00       25.00       25.00       25.00       25.00       25.00       25.00    
        25.00       25.00       25.00       25.00       25.00       25.00       25.00       25.00       25.00       25.00    
   3    26.10       25.89       25.45       25.20       25.08       25.03       25.01       25.01       25.00       25.00    
        25.00       25.00       25.00       25.00       25.00       25.00       25.00       25.00       25.00       25.00    
        25.00       25.00       25.00       25.00       25.00       25.00       25.00       25.00       25.00       25.00    
        25.00       25.00       25.00       25.00       25.00       25.00       25.00       25.00       25.00       25.00    
   4    25.42       25.34       25.20       25.10       25.05       25.02       25.01       25.00       25.00       25.00    
        25.00       25.00       25.00       25.00       25.00       25.00       25.00       25.00       25.00       25.00    
        25.00       25.00       25.00       25.00       25.00       25.00       25.00       25.00       25.00       25.00    
        25.00       25.00       25.00       25.00       25.00       25.00       25.00       25.00       25.00       25.00    
   5    25.15       25.13       25.08       25.05       25.02       25.01       25.00       25.00       25.00       25.00    
        25.00       25.00       25.00       25.00       25.00       25.00       25.00       25.00       25.00       25.00    
        25.00       25.00       25.00       25.00       25.00       25.00       25.00       25.00       25.00       25.00    
        25.00       25.00       25.00       25.00       25.00       25.00       25.00       25.00       25.00       25.00    
   6    25.06       25.05       25.03       25.02       25.01       25.01       25.00       25.00       25.00       25.00    
        25.00       25.00       25.00       25.00       25.00       25.00       25.00       25.00       25.00       25.00    
        25.00       25.00       25.00       25.00       25.00       25.00       25.00       25.00       25.00       25.00    
        25.00       25.00       25.00       25.00       25.00       25.00       25.00       25.00       25.00       25.00    
   7    25.02       25.02       25.01       25.01       25.00       25.00       25.00       25.00       25.00       25.00    
        25.00       25.00       25.00       25.00       25.00       25.00       25.00       25.00       25.00       25.00    
        25.00       25.00       25.00       25.00       25.00       25.00       25.00       25.00       25.00       25.00    
        25.00       25.00       25.00       25.00       25.00       25.00       25.00       25.00       25.00       25.00    
   8    25.01       25.01       25.01       25.00       25.00       25.00       25.00       25.00       25.00       25.00    
        25.00       25.00       25.00       25.00       25.00       25.00       25.00       25.00       25.00       25.00    
        25.00       25.00       25.00       25.00       25.00       25.00       25.00       25.00       25.00       25.00    
        25.00       25.00       25.00       25.00       25.00       25.00       25.00       25.00       25.00       25.00    
   9    25.00       25.00       25.00       25.00       25.00       25.00       25.00       25.00       25.00       25.00    
        25.00       25.00       25.00       25.00       25.00       25.00       25.00       25.00       25.00       25.00    
        25.00       25.00       25.00       25.00       25.00       25.00       25.00       25.00       25.00       25.00    
        25.00       25.00       25.00       25.00       25.00       25.00       25.00       25.00       25.00       25.00    
  10    25.00       25.00       25.00       25.00       25.00       25.00       25.00       25.00       25.00       25.00    
        25.00       25.00       25.00       25.00       25.00       25.00       25.00       25.00       25.00       25.00    
        25.00       25.00       25.00       25.00       25.00       25.00       25.00       25.00       25.00       25.00    
        25.00       25.00       25.00       25.00       25.00       25.00       25.00       25.00       25.00       25.00    
  11    25.00       25.00       25.00       25.00       25.00       25.00       25.00       25.00       25.00       25.00    
        25.00       25.00       25.00       25.00       25.00       25.00       25.00       25.00       25.00       25.00    
        25.00       25.00       25.00       25.00       25.00       25.00       25.00       25.00       25.00       25.00    
        25.00       25.00       25.00       25.00       25.00       25.00       25.00       25.00       25.00       25.00    
  12    25.00       25.00       25.00       25.00       25.00       25.00       25.00       25.00       25.00       25.00    
        25.00       25.00       25.00       25.00       25.00       25.00       25.00       25.00       25.00       25.00    
        25.00       25.00       25.00       25.00       25.00       25.00       25.00       25.00       25.00       25.00    
        25.00       25.00       25.00       25.00       25.00       25.00       25.00       25.00       25.00       25.00    
  13    25.00       25.00       25.00       25.00       25.00       25.00       25.00       25.00       25.00       25.00    
        25.00       25.00       25.00       25.00       25.00       25.00       25.00       25.00       25.00       25.00    
        25.00       25.00       25.00       25.00       25.00       25.00       25.00       25.00       25.00       25.00    
        25.00       25.00       25.00       25.00       25.00       25.00       25.00       25.00       25.00       25.00    
  14    25.00       25.00       25.00       25.00       25.00       25.00       25.00       25.00       25.00       25.00    
        25.00       25.00       25.00       25.00       25.00       25.00       25.00       25.00       25.00       25.00    
        25.00       25.00       25.00       25.00       25.00       25.00       25.00       25.00       25.00       25.00    
        25.00       25.00       25.00       25.00       25.00       25.00       25.00       25.00       25.00       25.00    
  15    25.00       25.00       25.00       25.00       25.00       25.00       25.00       25.00       25.00       25.00    
        25.00       25.00       25.00       25.00       25.00       25.00       25.00       25.00       25.00       25.00    
        25.00       25.00       25.00       25.00       25.00       25.00       25.00       25.00       25.00       25.00    
        25.00       25.00       25.00       25.00       25.00       25.00       25.00       25.00       25.00       25.00    
  16    25.00       25.00       25.00       25.00       25.00       25.00       25.00       25.00       25.00       25.00    
        25.00       25.00       25.00       25.00       25.00       25.00       25.00       25.00       25.00       25.00    
        25.00       25.00       25.00       25.00       25.00       25.00       25.00       25.00       25.00       25.00    
        25.00       25.00       25.00       25.00       25.00       25.00       25.00       25.00       25.00       25.00    
  17    25.00       25.00       25.00       25.00       25.00       25.00       25.00       25.00       25.00       25.00    
        25.00       25.00       25.00       25.00       25.00       25.00       25.00       25.00       25.00       25.00    
        25.00       25.00       25.00       25.00       25.00       25.00       25.00       25.00       25.00       25.00    
        25.00       25.00       25.00       25.00       25.00       25.00       25.00       25.00       25.00       25.00    
  18    25.00       25.00       25.00       25.00       25.00       25.00       25.00       25.00       25.00       25.00    
        25.00       25.00       25.00       25.00       25.00       25.00       25.00       25.00       25.00       25.00    
        25.00       25.00       25.00       25.00       25.00       25.00       25.00       25.00       25.00       25.00    
        25.00       25.00       25.00       25.00       25.00       25.00       25.00       25.00       25.00       25.00    
  19    25.00       25.00       25.00       25.00       25.00       25.00       25.00       25.00       25.00       25.00    
        25.00       25.00       25.00       25.00       25.00       25.00       25.00       25.00       25.00       25.00    
        25.00       25.00       25.00       25.00       25.00       25.00       25.00       25.00       25.00       25.00    
        25.00       25.00       25.00       25.00       25.00       25.00       25.00       25.00       25.00       25.00    
  20    25.00       25.00       25.00       25.00       25.00       25.00       25.00       25.00       25.00       25.00    
        25.00       25.00       25.00       25.00       25.00       25.00       25.00       25.00       25.00       25.00    
        25.00       25.00       25.00       25.00       25.00       25.00       25.00       25.00       25.00       25.00    
        25.00       25.00       25.00       25.00       25.00       25.00       25.00       25.00       25.00       25.00    
  21    25.00       25.00       25.00       25.00       25.00       25.00       25.00       25.00       25.00       25.00    
        25.00       25.00       25.00       25.00       25.00       25.00       25.00       25.00       25.00       25.00    
        25.00       25.00       25.00       25.00       25.00       25.00       25.00       25.00       25.00       25.00    
        25.00       25.00       25.00       25.00       25.00       25.00       25.00       25.00       25.00       25.00    
  22    25.00       25.00       25.00       25.00       25.00       25.00       25.00       25.00       25.00       25.00    
        25.00       25.00       25.00       25.00       25.00       25.00       25.00       25.00       25.00       25.00    
        25.00       25.00       25.00       25.00       25.00       25.00       25.00       25.00       25.00       25.00    
        25.00       25.00       25.00       25.00       25.00       25.00       25.00       25.00       25.00       25.00    
  23    25.00       25.00       25.00       25.00       25.00       25.00       25.00       25.00       25.00       25.00    
        25.00       25.00       25.00       25.00       25.00       25.00       25.00       25.00       25.00       25.00    
        25.00       25.00       25.00       25.00       25.00       25.00       25.00       25.00       25.00       25.00    
        25.00       25.00       25.00       25.00       25.00       25.00       25.00       25.00       25.00       25.00    
  24    25.00       25.00       25.00       25.00       25.00       25.00       25.00       25.00       25.00       25.00    
        25.00       25.00       25.00       25.00       25.00       25.00       25.00       25.00       25.00       25.00    
        25.00       25.00       25.00       25.00       25.00       25.00       25.00       25.00       25.00       25.00    
        25.00       25.00       25.00       25.00       25.00       25.00       25.00       25.00       25.00       25.00    
  25    25.00       25.00       25.00       25.00       25.00       25.00       25.00       25.00       25.00       25.00    
        25.00       25.00       25.00       25.00       25.00       25.00       25.00       25.00       25.00       25.00    
        25.00       25.00       25.00       25.00       25.00       25.00       25.00       25.00       25.00       25.00    
        25.00       25.00       25.00       25.00       25.00       25.00       25.00       25.00       25.00       25.00    
  26    25.00       25.00       25.00       25.00       25.00       25.00       25.00       25.00       25.00       25.00    
        25.00       25.00       25.00       25.00       25.00       25.00       25.00       25.00       25.00       25.00    
        25.00       25.00       25.00       25.00       25.00       25.00       25.00       25.00       25.00       25.00    
        25.00       25.00       25.00       25.00       25.00       25.00       25.00       25.00       25.00       25.00    
  27    25.00       25.00       25.00       25.00       25.00       25.00       25.00       25.00       25.00       25.00    
        25.00       25.00       25.00       25.00       25.00       25.00       25.00       25.00       25.00       25.00    
        25.00       25.00       25.00       25.00       25.00       25.00       25.00       25.00       25.00       25.00    
        25.00       25.00       25.00       25.00       25.00       25.00       25.00       25.00       25.00       25.00    
  28    25.00       25.00       25.00       25.00       25.00       25.00       25.00       25.00       25.00       25.00    
        25.00       25.00       25.00       25.00       25.00       25.00       25.00       25.00       25.00       25.00    
        25.00       25.00       25.00       25.00       25.00       25.00       25.00       25.00       25.00       25.00    
        25.00       25.00       25.00       25.00       25.00       25.00       25.00       25.00       25.00       25.00    
  29    25.00       25.00       25.00       25.00       25.00       25.00       25.00       25.00       25.00       25.00    
        25.00       25.00       25.00       25.00       25.00       25.00       25.00       25.00       25.00       25.00    
        25.00       25.00       25.00       25.00       25.00       25.00       25.00       25.00       25.00       25.00    
        25.00       25.00       25.00       25.00       25.00       25.00       25.00       25.00       25.00       25.00    
  30    25.00       25.00       25.00       25.00       25.00       25.00       25.00       25.00       25.00       25.00    
        25.00       25.00       25.00       25.00       25.00       25.00       25.00       25.00       25.00       25.00    
        25.00       25.00       25.00       25.00       25.00       25.00       25.00       25.00       25.00       25.00    
        25.00       25.00       25.00       25.00       25.00       25.00       25.00       25.00       25.00       25.00    
  31    25.00       25.00       25.00       25.00       25.00       25.00       25.00       25.00       25.00       25.00    
        25.00       25.00       25.00       25.00       25.00       25.00       25.00       25.00       25.00       25.00    
        25.00       25.00       25.00       25.00       25.00       25.00       25.00       25.00       25.00       25.00    
        25.00       25.00       25.00       25.00       25.00       25.00       25.00       25.00       25.00       25.00    
  32    25.00       25.00       25.00       25.00       25.00       25.00       25.00       25.00       25.00       25.00    
        25.00       25.00       25.00       25.00       25.00       25.00       25.00       25.00       25.00       25.00    
        25.00       25.00       25.00       25.00       25.00       25.00       25.00       25.00       25.00       25.00    
        25.00       25.00       25.00       25.00       25.00       25.00       25.00       25.00       25.00       25.00    
  33    25.00       25.00       25.00       25.00       25.00       25.00       25.00       25.00       25.00       25.00    
        25.00       25.00       25.00       25.00       25.00       25.00       25.00       25.00       25.00       25.00    
        25.00       25.00       25.00       25.00       25.00       25.00       25.00       25.00       25.00       25.00    
        25.00       25.00       25.00       25.00       25.00       25.00       25.00       25.00       25.00       25.00    
  34    25.00       25.00       25.00       25.00       25.00       25.00       25.00       25.00       25.00       25.00    
        25.00       25.00       25.00       25.00       25.00       25.00       25.00       25.00       25.00       25.00    
        25.00       25.00       25.00       25.00       25.00       25.00       25.00       25.00       25.00       25.00    
        25.00       25.00       25.00       25.00       25.00       25.00       25.00       25.00       25.00       25.00    
  35    25.00       25.00       25.00       25.00       25.00       25.00       25.00       25.00       25.00       25.00    
        25.00       25.00       25.00       25.00       25.00       25.00       25.00       25.00       25.00       25.00    
        25.00       25.00       25.00       25.00       25.00       25.00       25.00       25.00       25.00       25.00    
        25.00       25.00       25.00       25.00       25.00       25.00       25.00       25.00       25.00       25.00    
  36    25.00       25.00       25.00       25.00       25.00       25.00       25.00       25.00       25.00       25.00    
        25.00       25.00       25.00       25.00       25.00       25.00       25.00       25.00       25.00       25.00    
        25.00       25.00       25.00       25.00       25.00       25.00       25.00       25.00       25.00       25.00    
        25.00       25.00       25.00       25.00       25.00       25.00       25.00       25.00       25.00       25.00    
  37    25.00       25.00       25.00       25.00       25.00       25.00       25.00       25.00       25.00       25.00    
        25.00       25.00       25.00       25.00       25.00       25.00       25.00       25.00       25.00       25.00    
        25.00       25.00       25.00       25.00       25.00       25.00       25.00       25.00       25.00       25.00    
        25.00       25.00       25.00       25.00       25.00       25.00       25.00       25.00       25.00       25.00    
  38    25.00       25.00       25.00       25.00       25.00       25.00       25.00       25.00       25.00       25.00    
        25.00       25.00       25.00       25.00       25.00       25.00       25.00       25.00       25.00       25.00    
        25.00       25.00       25.00       25.00       25.00       25.00       25.00       25.00       25.00       25.00    
        25.00       25.00       25.00       25.00       25.00       25.00       25.00       25.00       25.00       25.00    
  39    25.00       25.00       25.00       25.00       25.00       25.00       25.00       25.00       25.00       25.00    
        25.00       25.00       25.00       25.00       25.00       25.00       25.00       25.00       25.00       25.00    
        25.00       25.00       25.00       25.00       25.00       25.00       25.00       25.00       25.00       25.00    
        25.00       25.00       25.00       25.00       25.00       25.00       25.00       25.00       25.00       25.00    
  40    25.00       25.00       25.00       25.00       25.00       25.00       25.00       25.00       25.00       25.00    
        25.00       25.00       25.00       25.00       25.00       25.00       25.00       25.00       25.00       25.00    
        25.00       25.00       25.00       25.00       25.00       25.00       25.00       25.00       25.00       25.00    
        25.00       25.00       25.00       25.00       25.00       25.00       25.00       25.00       25.00       25.00    
1
  VOLUMETRIC BUDGET FOR ENTIRE MODEL AT END OF TIME STEP  1 IN STRESS PERIOD   1
  ------------------------------------------------------------------------------

     CUMULATIVE VOLUMES      L**3       RATES FOR THIS TIME STEP      L**3/T
     ------------------                 ------------------------

           IN:                                      IN:
           ---                                      ---
             STORAGE =       6.5744E-02               STORAGE =       3.4602E-03
       CONSTANT HEAD =       3.6800E-02         CONSTANT HEAD =       1.9368E-03
            RECHARGE =       59375.0000              RECHARGE =        3125.0000

            TOTAL IN =       59375.1016              TOTAL IN =        3125.0054

          OUT:                                     OUT:
          ----                                     ----
             STORAGE =       59374.5391               STORAGE =        3124.9758
       CONSTANT HEAD =       3.4128E-02         CONSTANT HEAD =       1.7962E-03
            RECHARGE =           0.0000              RECHARGE =           0.0000

           TOTAL OUT =       59374.5742             TOTAL OUT =        3124.9775

            IN - OUT =           0.5273              IN - OUT =       2.7832E-02

 PERCENT DISCREPANCY =           0.00     PERCENT DISCREPANCY =           0.00






          TIME SUMMARY AT END OF TIME STEP   1 IN STRESS PERIOD    1
                    SECONDS     MINUTES      HOURS       DAYS        YEARS
                    -----------------------------------------------------------
   TIME STEP LENGTH 1.64160E+06  27360.      456.00      19.000     5.20192E-02
 STRESS PERIOD TIME 1.64160E+06  27360.      456.00      19.000     5.20192E-02
         TOTAL TIME 1.64160E+06  27360.      456.00      19.000     5.20192E-02
1
 
 SOLVING FOR HEAD 

 CELL CONVERSIONS FOR ITER.=  2  LAYER=  8  STEP=  2  PERIOD=   1   (ROW,COL)
    WET(  1,  1)   WET(  1,  2)   WET(  2,  1)   
     5 CALLS TO PCG ROUTINE FOR TIME STEP   2 IN STRESS PERIOD    1
    30 TOTAL ITERATIONS

 MAXIMUM HEAD CHANGE FOR EACH ITERATION (1 INDICATES THE FIRST INNER ITERATION):

    HEAD CHANGE    HEAD CHANGE    HEAD CHANGE    HEAD CHANGE    HEAD CHANGE 
   LAYER,ROW,COL  LAYER,ROW,COL  LAYER,ROW,COL  LAYER,ROW,COL  LAYER,ROW,COL
 ---------------------------------------------------------------------------
  1   2.904      0 -0.4137      0 -0.1302      0 -0.1426E-01  0 -0.7254E-02
   (  9,  1,  1)  ( 14,  2,  2)  ( 14,  1,  1)  ( 14,  1,  4)  ( 14,  4,  1)
  0 -0.1508E-02  0 -0.9878E-03  0 -0.3723E-03  0 -0.3735E-03  0  0.3971E-04
   ( 14,  2,  5)  ( 14,  5,  2)  ( 14,  1,  1)  ( 14,  1,  1)  ( 14, 19,  2)
  1   1.378      0  0.2591      0  0.6975E-01  0  0.3174E-01  0  0.2083E-02
   (  8,  1,  1)  ( 14,  2,  2)  ( 14,  1,  1)  ( 14,  1,  1)  ( 11,  2,  2)
  0  0.2573E-02  0 -0.3312E-03  0  0.4698E-03  0  0.1131E-03  0  0.3811E-04
   ( 10,  1,  2)  ( 13,  2, 21)  ( 14,  1,  1)  ( 14,  1,  1)  ( 13,  3, 18)
  1  0.3030E-01  0  0.1152E-01  0  0.3038E-03  0 -0.5964E-03  0  0.1029E-03
   (  9,  2,  2)  ( 14,  1,  1)  ( 14, 23,  3)  ( 14,  2,  3)  ( 13,  3, 18)
  0 -0.1710E-03  0 -0.3454E-04  1 -0.4655E-03  0  0.5835E-04  1  0.2788E-04
   ( 14,  1,  1)  ( 14,  1,  1)  (  9,  2,  2)  ( 14,  2,  2)  ( 14,  2,  2)

 MAXIMUM RESIDUAL FOR EACH ITERATION (1 INDICATES THE FIRST INNER ITERATION):

    RESIDUAL       RESIDUAL       RESIDUAL       RESIDUAL       RESIDUAL    
   LAYER,ROW,COL  LAYER,ROW,COL  LAYER,ROW,COL  LAYER,ROW,COL  LAYER,ROW,COL
 ---------------------------------------------------------------------------
  1  -97.25      0  -19.17      0   3.822      0   1.351      0 -0.5244    
   (  9,  1,  1)  (  9,  1,  1)  ( 11,  2,  2)  ( 11,  2,  2)  ( 13,  2,  2)
  0  0.2203      0  0.1273      0  0.7577E-01  0  0.2037E-01  0  0.1292E-01
   ( 10,  2,  2)  ( 10,  2,  2)  ( 10,  2,  2)  ( 10,  2,  2)  ( 10,  2,  2)
  1  -35.52      0   8.124      0  -2.550      0 -0.8618      0 -0.7118    
   (  8,  1,  1)  ( 13,  2,  2)  ( 14,  1,  1)  ( 10,  1,  2)  ( 10,  1,  2)
  0 -0.1851      0  0.1111      0  0.5148E-01  0  0.3177E-01  0  0.2040E-01
   ( 10,  1,  2)  ( 10,  1,  1)  ( 10,  1,  1)  ( 10,  1,  1)  ( 10,  1,  1)
  1  -4.854      0  0.3871      0  0.3036      0  0.1256      0  0.7572E-01
   (  9,  2,  2)  ( 10,  2,  2)  ( 10,  2,  2)  ( 10,  2,  2)  ( 10,  2,  2)
  0  0.1953E-01  0 -0.8709E-02  1  0.8366E-01  0  0.4699E-01  1  0.5001E-01
   (  8,  1,  1)  ( 10,  1,  1)  (  9,  2,  2)  (  9,  2,  2)  (  9,  2,  2)



 NO OUTPUT CONTROL FOR STRESS PERIOD    1   TIME STEP   2
 
 SOLVING FOR HEAD 

 CELL CONVERSIONS FOR ITER.=  2  LAYER=  8  STEP=  3  PERIOD=   1   (ROW,COL)
    WET(  2,  2)   
     5 CALLS TO PCG ROUTINE FOR TIME STEP   3 IN STRESS PERIOD    1
    27 TOTAL ITERATIONS

 MAXIMUM HEAD CHANGE FOR EACH ITERATION (1 INDICATES THE FIRST INNER ITERATION):

    HEAD CHANGE    HEAD CHANGE    HEAD CHANGE    HEAD CHANGE    HEAD CHANGE 
   LAYER,ROW,COL  LAYER,ROW,COL  LAYER,ROW,COL  LAYER,ROW,COL  LAYER,ROW,COL
 ---------------------------------------------------------------------------
  1   2.540      0 -0.3217      0 -0.9390E-01  0  0.1467E-01  0  0.4076E-02
   (  9,  1,  1)  ( 14,  2,  1)  ( 14,  1,  1)  ( 12,  1,  1)  ( 11,  1,  1)
  0 -0.3357E-02  0  0.2887E-03  0  0.5093E-03  0  0.4253E-04  1   1.495    
   ( 14,  1,  1)  ( 14,  4, 24)  ( 13,  2,  2)  ( 14, 22, 22)  (  8,  2,  2)
  0  0.2149      0  0.2458E-01  0  0.2662E-02  0  0.3376E-02  0  0.2995E-03
   ( 13,  2,  2)  ( 14,  2,  1)  ( 14,  1,  1)  ( 14,  1,  1)  ( 10,  2,  2)
  0 -0.7235E-03  0  0.4398E-04  1  0.4044E-01  0 -0.1194E-01  0  0.1612E-02
   ( 14,  1,  1)  ( 14,  3, 22)  (  8,  2,  2)  ( 13,  2,  2)  ( 14,  1,  1)
  0  0.1862E-02  0  0.1946E-03  0 -0.2500E-03  0 -0.2855E-04  1 -0.4302E-03
   ( 14,  1,  1)  ( 14,  2,  2)  ( 10,  1,  1)  ( 14,  2,  1)  (  8,  2,  1)
  0 -0.8248E-04  1 -0.5078E-04
   ( 14,  1,  1)  ( 14,  1,  1)

 MAXIMUM RESIDUAL FOR EACH ITERATION (1 INDICATES THE FIRST INNER ITERATION):

    RESIDUAL       RESIDUAL       RESIDUAL       RESIDUAL       RESIDUAL    
   LAYER,ROW,COL  LAYER,ROW,COL  LAYER,ROW,COL  LAYER,ROW,COL  LAYER,ROW,COL
 ---------------------------------------------------------------------------
  1  -70.76      0  -9.568      0  -2.229      0  0.7329      0  0.5401    
   (  9,  2,  2)  (  9,  2,  2)  ( 10,  1,  1)  ( 10,  2,  2)  ( 10,  2,  2)
  0 -0.1246      0 -0.9568E-01  0  0.3378E-01  0  0.2372E-01  1  -28.37    
   ( 13,  2,  2)  ( 13,  2,  2)  ( 10,  2,  2)  ( 10,  2,  2)  ( 11,  2,  2)
  0  -3.711      0  -1.779      0  -1.306      0 -0.4218      0 -0.2757    
   ( 10,  2,  2)  ( 10,  2,  2)  ( 10,  2,  2)  ( 10,  2,  2)  ( 10,  2,  2)
  0 -0.9063E-01  0 -0.6516E-01  1  -8.137      0  0.8521      0  0.5739    
   (  9,  1,  2)  (  9,  1,  2)  (  8,  2,  2)  (  9,  2,  2)  (  9,  2,  2)
  0  0.2214      0  0.1240      0  0.2526E-01  0  0.1675E-01  1 -0.1201    
   (  9,  2,  2)  (  9,  2,  2)  (  9,  2,  2)  (  9,  2,  2)  (  8,  2,  2)
  0 -0.6219E-01  1 -0.5359E-01
   (  8,  2,  2)  (  8,  2,  2)



 NO OUTPUT CONTROL FOR STRESS PERIOD    1   TIME STEP   3
 
 SOLVING FOR HEAD 

 CELL CONVERSIONS FOR ITER.=  2  LAYER=  7  STEP=  4  PERIOD=   1   (ROW,COL)
    WET(  1,  1)   
     4 CALLS TO PCG ROUTINE FOR TIME STEP   4 IN STRESS PERIOD    1
    23 TOTAL ITERATIONS

 MAXIMUM HEAD CHANGE FOR EACH ITERATION (1 INDICATES THE FIRST INNER ITERATION):

    HEAD CHANGE    HEAD CHANGE    HEAD CHANGE    HEAD CHANGE    HEAD CHANGE 
   LAYER,ROW,COL  LAYER,ROW,COL  LAYER,ROW,COL  LAYER,ROW,COL  LAYER,ROW,COL
 ---------------------------------------------------------------------------
  1   1.864      0 -0.2948      0 -0.5316E-01  0 -0.7675E-02  0 -0.6363E-02
   (  8,  1,  1)  ( 14,  2,  2)  ( 14,  1,  3)  ( 14,  1,  4)  ( 14,  1,  4)
  0 -0.9726E-03  0 -0.7502E-03  0 -0.4361E-03  0 -0.3010E-03  0  0.4015E-04
   ( 14,  5,  2)  ( 14,  2,  1)  ( 14,  1,  1)  ( 14,  1,  1)  ( 11,  1,  1)
  1  0.7109      0  0.2802      0  0.3465E-01  0  0.2322E-02  0  0.3601E-02
   (  7,  1,  1)  ( 14,  1,  1)  ( 13,  2,  1)  ( 12,  2,  2)  ( 12,  2,  2)
  0  0.3509E-03  0  0.5005E-03  0  0.6016E-04  1  0.2106E-02  0  0.2983E-03
   (  9,  1,  1)  ( 13,  3,  3)  ( 14,  2, 21)  (  8,  1,  1)  ( 13,  2,  2)
  0  0.3250E-03  0 -0.7787E-04  1 -0.3406E-04
   ( 12,  2,  2)  ( 14,  1,  1)  ( 14,  2,  2)

 MAXIMUM RESIDUAL FOR EACH ITERATION (1 INDICATES THE FIRST INNER ITERATION):

    RESIDUAL       RESIDUAL       RESIDUAL       RESIDUAL       RESIDUAL    
   LAYER,ROW,COL  LAYER,ROW,COL  LAYER,ROW,COL  LAYER,ROW,COL  LAYER,ROW,COL
 ---------------------------------------------------------------------------
  1  -37.18      0  -9.013      0   2.005      0   1.027      0  0.2549    
   (  8,  1,  1)  ( 13,  2,  2)  ( 10,  2,  2)  ( 10,  2,  2)  ( 14,  1,  2)
  0  0.1276      0  0.9213E-01  0  0.3957E-01  0 -0.1155E-01  0  0.7380E-02
   ( 14,  1,  2)  ( 14,  1,  1)  ( 14,  1,  1)  ( 10,  1,  1)  ( 10,  2,  3)
  1  -39.46      0  -3.262      0  -1.345      0  -1.010      0 -0.3830    
   (  7,  1,  1)  (  7,  1,  1)  (  9,  1,  1)  (  9,  1,  1)  (  9,  1,  1)
  0 -0.2668      0 -0.8855E-01  0 -0.5739E-01  1  0.3759      0  0.1916    
   (  9,  1,  1)  (  9,  1,  1)  (  9,  1,  1)  (  8,  2,  2)  (  8,  2,  2)
  0 -0.4624E-01  0 -0.3027E-01  1 -0.3431E-01
   (  8,  1,  1)  (  8,  1,  1)  (  9,  2,  2)



 NO OUTPUT CONTROL FOR STRESS PERIOD    1   TIME STEP   4
 
 SOLVING FOR HEAD 

 CELL CONVERSIONS FOR ITER.=  2  LAYER=  7  STEP=  5  PERIOD=   1   (ROW,COL)
    WET(  1,  2)   WET(  2,  1)   
     5 CALLS TO PCG ROUTINE FOR TIME STEP   5 IN STRESS PERIOD    1
    30 TOTAL ITERATIONS

 MAXIMUM HEAD CHANGE FOR EACH ITERATION (1 INDICATES THE FIRST INNER ITERATION):

    HEAD CHANGE    HEAD CHANGE    HEAD CHANGE    HEAD CHANGE    HEAD CHANGE 
   LAYER,ROW,COL  LAYER,ROW,COL  LAYER,ROW,COL  LAYER,ROW,COL  LAYER,ROW,COL
 ---------------------------------------------------------------------------
  1   1.796      0 -0.3505      0 -0.6696E-01  0 -0.8596E-02  0 -0.2813E-02
   (  8,  1,  1)  ( 14,  1,  1)  ( 14,  1,  2)  ( 14,  1,  4)  ( 14,  1,  4)
  0 -0.1245E-02  0 -0.5348E-03  0 -0.2786E-03  0 -0.1385E-03  0  0.4087E-04
   ( 14,  5,  2)  ( 14,  5,  2)  ( 14,  2,  2)  ( 14,  2,  2)  ( 13,  2,  2)
  1  0.7436      0  0.1830      0  0.7544E-01  0  0.3340E-02  0  0.3093E-02
   (  7,  2,  1)  ( 13,  1,  2)  ( 14,  1,  1)  ( 14,  3,  1)  ( 14,  1,  3)
  0  0.7107E-03  0  0.7996E-03  0  0.1176E-03  0 -0.1771E-03  0 -0.1537E-04
   ( 11,  2,  2)  ( 11,  2,  2)  ( 14,  1,  1)  ( 14,  2,  2)  ( 14,  4, 32)
  1 -0.3101E-01  0  0.1405E-01  0  0.1292E-02  0  0.3766E-03  0 -0.4224E-03
   (  7,  1,  1)  ( 14,  1,  1)  ( 10,  1,  1)  (  9,  1,  1)  ( 14,  1,  1)
  0 -0.1261E-03  0 -0.4892E-04  1 -0.2738E-03  0 -0.9646E-04  1  0.6970E-04
   ( 14,  1,  1)  ( 14,  1,  1)  (  7,  1,  1)  (  7,  1,  1)  ( 14,  1,  1)

 MAXIMUM RESIDUAL FOR EACH ITERATION (1 INDICATES THE FIRST INNER ITERATION):

    RESIDUAL       RESIDUAL       RESIDUAL       RESIDUAL       RESIDUAL    
   LAYER,ROW,COL  LAYER,ROW,COL  LAYER,ROW,COL  LAYER,ROW,COL  LAYER,ROW,COL
 ---------------------------------------------------------------------------
  1  -31.01      0  -7.072      0   1.415      0 -0.4020      0 -0.2947    
   (  8,  1,  2)  (  8,  2,  2)  ( 10,  2,  2)  (  8,  1,  2)  ( 13,  2,  2)
  0  0.9485E-01  0  0.5387E-01  0  0.2023E-01  0 -0.1295E-01  0  0.5014E-02
   ( 14,  1,  2)  ( 14,  2,  2)  ( 14,  1,  1)  ( 11,  2,  2)  ( 10,  2,  3)
  1  -32.31      0  -5.429      0   1.899      0   1.288      0  0.5685    
   (  7,  1,  2)  ( 14,  1,  1)  (  9,  1,  1)  (  9,  1,  1)  (  9,  1,  1)
  0  0.3566      0 -0.1560      0 -0.1089      0 -0.4715E-01  0 -0.3415E-01
   (  9,  1,  1)  (  8,  1,  1)  (  8,  1,  1)  (  8,  1,  1)  (  8,  1,  1)
  1   6.811      0  0.8421      0  0.4003      0  0.2340      0  0.6080E-01
   (  7,  1,  1)  (  7,  1,  1)  (  7,  1,  1)  (  7,  1,  1)  (  7,  1,  1)
  0  0.2161E-01  0 -0.1234E-01  1  0.8475E-01  0  0.4801E-01  1  0.3700E-01
   (  7,  1,  1)  (  8,  1,  1)  (  7,  1,  1)  (  7,  1,  1)  (  7,  1,  1)



 NO OUTPUT CONTROL FOR STRESS PERIOD    1   TIME STEP   5
 
 SOLVING FOR HEAD 

 CELL CONVERSIONS FOR ITER.=  2  LAYER=  7  STEP=  6  PERIOD=   1   (ROW,COL)
    WET(  2,  2)   

 CELL CONVERSIONS FOR ITER.=  2  LAYER=  8  STEP=  6  PERIOD=   1   (ROW,COL)
    WET(  1,  3)   WET(  3,  1)   
     6 CALLS TO PCG ROUTINE FOR TIME STEP   6 IN STRESS PERIOD    1
    34 TOTAL ITERATIONS

 MAXIMUM HEAD CHANGE FOR EACH ITERATION (1 INDICATES THE FIRST INNER ITERATION):

    HEAD CHANGE    HEAD CHANGE    HEAD CHANGE    HEAD CHANGE    HEAD CHANGE 
   LAYER,ROW,COL  LAYER,ROW,COL  LAYER,ROW,COL  LAYER,ROW,COL  LAYER,ROW,COL
 ---------------------------------------------------------------------------
  1   1.360      0 -0.1913      0 -0.1014      0  0.7328E-02  0  0.5494E-02
   (  8,  2,  1)  ( 14,  1,  2)  ( 14,  1,  1)  ( 10,  1,  1)  ( 10,  1,  1)
  0  0.1464E-02  0 -0.2646E-03  0  0.3835E-03  0  0.4067E-04  1  0.5209    
   ( 13,  3,  1)  ( 14,  3, 35)  ( 12,  2,  2)  ( 14, 21,  5)  (  7,  2,  2)
  0  0.2218      0  0.2744E-01  0  0.4136E-02  0  0.3436E-02  0 -0.8870E-03
   ( 13,  2,  2)  ( 14,  1,  2)  ( 14,  1,  1)  ( 14,  1,  1)  ( 11,  1,  1)
  0 -0.4973E-03  0  0.1002E-03  0  0.5726E-04  1 -0.4171E-01  0 -0.1533E-01
   ( 11,  1,  1)  ( 14,  1,  1)  ( 14,  1,  1)  (  8,  1,  2)  ( 14,  1,  1)
  0  0.7388E-02  0  0.6886E-03  0  0.8259E-03  0 -0.1215E-03  0 -0.1319E-03
   ( 14,  1,  1)  ( 14,  1,  1)  ( 14,  1,  3)  (  9,  1,  1)  (  9,  1,  1)
  0  0.2854E-04  1 -0.4233E-02  0 -0.1970E-02  0  0.3229E-03  0  0.4193E-03
   ( 14,  1, 19)  (  8,  2,  1)  ( 14,  1,  1)  ( 14,  1,  1)  ( 14,  1,  1)
  0  0.4936E-04  1 -0.3935E-03  0 -0.8653E-04  1 -0.3976E-04
   ( 14,  1,  1)  (  8,  2,  1)  (  8,  2,  1)  ( 13,  1,  3)

 MAXIMUM RESIDUAL FOR EACH ITERATION (1 INDICATES THE FIRST INNER ITERATION):

    RESIDUAL       RESIDUAL       RESIDUAL       RESIDUAL       RESIDUAL    
   LAYER,ROW,COL  LAYER,ROW,COL  LAYER,ROW,COL  LAYER,ROW,COL  LAYER,ROW,COL
 ---------------------------------------------------------------------------
  1  -26.60      0   7.128      0  -1.514      0 -0.7443      0  0.2192    
   (  8,  2,  2)  ( 14,  1,  1)  (  9,  1,  1)  (  9,  1,  1)  ( 14,  2,  2)
  0  0.6717E-01  0 -0.6272E-01  0  0.1446E-01  0  0.1062E-01  1  -54.18    
   ( 14,  1,  2)  ( 12,  2,  2)  (  9,  2,  2)  (  9,  2,  2)  (  7,  2,  2)
  0   3.798      0  -1.364      0 -0.8547      0 -0.2914      0 -0.1374    
   ( 13,  2,  2)  (  9,  2,  2)  (  9,  2,  2)  (  9,  2,  2)  (  9,  2,  2)
  0 -0.5928E-01  0 -0.3367E-01  0 -0.1947E-01  1  -6.092      0  -1.094    
   (  8,  1,  2)  (  8,  1,  2)  (  8,  1,  2)  (  8,  1,  3)  (  8,  1,  3)
  0  0.4424      0  0.3177      0  0.6753E-01  0  0.4008E-01  0 -0.1459E-01
   (  8,  2,  2)  (  8,  2,  2)  (  9,  1,  1)  (  9,  1,  1)  ( 10,  2,  2)
  0 -0.1053E-01  1 -0.7158      0 -0.1143      0 -0.7073E-01  0  0.3368E-01
   ( 11,  1,  1)  (  8,  1,  3)  (  8,  1,  3)  (  8,  1,  3)  (  9,  1,  1)
  0  0.2064E-01  1 -0.9701E-01  0 -0.5677E-01  1 -0.6155E-01
   (  9,  1,  1)  (  8,  1,  3)  (  8,  1,  3)  (  8,  1,  3)



 NO OUTPUT CONTROL FOR STRESS PERIOD    1   TIME STEP   6
 
 SOLVING FOR HEAD 

 CELL CONVERSIONS FOR ITER.=  3  LAYER=  8  STEP=  7  PERIOD=   1   (ROW,COL)
    WET(  2,  3)   WET(  3,  2)   
     7 CALLS TO PCG ROUTINE FOR TIME STEP   7 IN STRESS PERIOD    1
    42 TOTAL ITERATIONS

 MAXIMUM HEAD CHANGE FOR EACH ITERATION (1 INDICATES THE FIRST INNER ITERATION):

    HEAD CHANGE    HEAD CHANGE    HEAD CHANGE    HEAD CHANGE    HEAD CHANGE 
   LAYER,ROW,COL  LAYER,ROW,COL  LAYER,ROW,COL  LAYER,ROW,COL  LAYER,ROW,COL
 ---------------------------------------------------------------------------
  1   1.190      0 -0.2104      0 -0.6019E-01  0 -0.2606E-02  0 -0.5844E-02
   (  8,  2,  2)  ( 13,  2,  2)  ( 14,  2,  1)  ( 14,  1,  4)  ( 14,  1,  4)
  0  0.2061E-02  0  0.1096E-02  0 -0.3901E-03  0 -0.2303E-03  0 -0.4294E-04
   ( 12,  1,  1)  ( 12,  1,  1)  ( 14,  1,  1)  ( 14,  1,  1)  ( 14,  1,  4)
  1  0.2503      0  0.6291E-01  0  0.2892E-01  0  0.6967E-02  0  0.5507E-03
   (  9,  3,  2)  (  9,  3,  2)  ( 14,  2,  1)  ( 14,  1,  1)  ( 14,  8, 33)
  0 -0.1495E-02  0 -0.1857E-03  0 -0.2341E-03  0 -0.3435E-04  1 -0.3566    
   ( 10,  1,  1)  ( 14,  2,  2)  ( 14,  1,  2)  ( 14,  2,  1)  (  9,  3,  2)
  0  0.1206      0  0.2054E-01  0  0.4150E-02  0  0.3433E-02  0  0.3021E-03
   ( 13,  3,  2)  ( 13,  3,  3)  ( 14,  1,  1)  ( 14,  1,  1)  ( 14,  2,  2)
  0 -0.2653E-03  0 -0.5918E-04  1 -0.3880E-01  0  0.1390E-01  0  0.9753E-03
   ( 12,  1,  1)  ( 11,  1,  2)  (  8,  2,  2)  ( 13,  2,  2)  ( 14,  1,  2)
  0  0.1206E-02  0  0.3294E-03  0  0.2679E-03  0 -0.4531E-04  1 -0.5203E-02
   ( 14,  2,  1)  ( 14,  1,  1)  ( 14,  1,  1)  ( 10,  1,  1)  (  8,  2,  2)
  0  0.1627E-02  0  0.1038E-03  0  0.1832E-03  0  0.5571E-04  1 -0.5512E-03
   ( 13,  2,  2)  ( 12,  2,  2)  ( 14,  2,  1)  ( 14,  1,  2)  (  8,  2,  2)
  0 -0.8852E-04  1  0.3962E-04
   (  8,  2,  2)  ( 13,  2,  2)

 MAXIMUM RESIDUAL FOR EACH ITERATION (1 INDICATES THE FIRST INNER ITERATION):

    RESIDUAL       RESIDUAL       RESIDUAL       RESIDUAL       RESIDUAL    
   LAYER,ROW,COL  LAYER,ROW,COL  LAYER,ROW,COL  LAYER,ROW,COL  LAYER,ROW,COL
 ---------------------------------------------------------------------------
  1   21.95      0  -5.768      0  0.8580      0  0.6730      0 -0.2754    
   ( 10,  2,  2)  ( 13,  2,  2)  ( 14,  1,  1)  (  8,  2,  2)  ( 10,  1,  1)
  0 -0.9841E-01  0  0.6955E-01  0  0.2688E-01  0 -0.1231E-01  0 -0.5887E-02
   ( 10,  1,  1)  ( 14,  1,  1)  ( 14,  1,  1)  ( 10,  2,  2)  ( 10,  2,  2)
  1  -39.74      0  -7.346      0  -2.377      0 -0.8286      0 -0.4811    
   (  9,  2,  3)  (  9,  2,  3)  ( 10,  2,  2)  ( 10,  2,  2)  ( 10,  2,  2)
  0 -0.1716      0 -0.1081      0 -0.3522E-01  0 -0.2085E-01  1  -49.07    
   ( 10,  2,  2)  ( 10,  2,  2)  ( 10,  2,  2)  ( 10,  2,  2)  (  8,  2,  3)
  0  -3.294      0  -1.119      0  0.5628      0 -0.1679      0 -0.1135    
   (  8,  2,  3)  ( 10,  2,  3)  ( 10,  2,  2)  (  9,  2,  2)  (  9,  2,  2)
  0 -0.5754E-01  0 -0.3535E-01  1   7.792      0  0.9097      0 -0.5497    
   (  9,  2,  2)  (  9,  2,  2)  (  8,  2,  2)  (  8,  2,  2)  (  8,  2,  3)
  0 -0.2210      0 -0.1045      0 -0.2483E-01  0  0.1774E-01  1  0.9761    
   ( 10,  2,  2)  (  9,  2,  2)  (  8,  2,  3)  (  9,  2,  3)  (  8,  2,  2)
  0  0.1489      0 -0.9010E-01  0 -0.3687E-01  0 -0.1811E-01  1  0.1205    
   (  8,  2,  2)  (  8,  2,  3)  (  8,  2,  3)  (  9,  2,  2)  (  8,  2,  2)
  0  0.6408E-01  1  0.7792E-01
   (  8,  2,  2)  (  8,  2,  2)



 NO OUTPUT CONTROL FOR STRESS PERIOD    1   TIME STEP   7
 
 SOLVING FOR HEAD 

 CELL CONVERSIONS FOR ITER.=  3  LAYER=  6  STEP=  8  PERIOD=   1   (ROW,COL)
    WET(  1,  1)   
     8 CALLS TO PCG ROUTINE FOR TIME STEP   8 IN STRESS PERIOD    1
    42 TOTAL ITERATIONS

 MAXIMUM HEAD CHANGE FOR EACH ITERATION (1 INDICATES THE FIRST INNER ITERATION):

    HEAD CHANGE    HEAD CHANGE    HEAD CHANGE    HEAD CHANGE    HEAD CHANGE 
   LAYER,ROW,COL  LAYER,ROW,COL  LAYER,ROW,COL  LAYER,ROW,COL  LAYER,ROW,COL
 ---------------------------------------------------------------------------
  1  0.8853      0 -0.1216      0  0.1893E-01  0 -0.1557E-02  0 -0.3113E-02
   (  7,  1,  1)  ( 14,  2,  2)  ( 12,  2,  2)  ( 14,  4,  1)  ( 14,  1,  5)
  0  0.7805E-03  0  0.7947E-03  0 -0.2103E-03  0 -0.1485E-03  0 -0.3326E-04
   ( 11,  1,  1)  ( 12,  1,  1)  ( 14,  1,  1)  ( 14,  1,  1)  ( 14, 20,  1)
  1  0.2266      0 -0.9761E-01  0  0.3173E-01  0 -0.6039E-02  0  0.4975E-03
   (  7,  1,  1)  ( 14,  1,  1)  ( 13,  2,  2)  ( 14,  2,  2)  ( 14,  3,  1)
  0  0.7366E-03  0  0.2242E-03  0  0.1447E-03  0 -0.1628E-04  1  -1.017    
   ( 14,  3,  1)  ( 13,  1,  2)  ( 13,  1,  2)  ( 12, 19,  2)  (  7,  1,  1)
  0  0.4637      0  0.6519E-01  0  0.1292E-01  0  0.1026E-02  0 -0.1712E-02
   ( 14,  1,  1)  ( 14,  2,  1)  ( 12,  2,  2)  (  8,  1,  1)  ( 14,  2,  2)
  0 -0.2628E-03  0  0.2234E-03  0 -0.4996E-04  1  0.3058E-01  0 -0.2770E-02
   ( 12, 19,  2)  ( 11,  2,  2)  ( 14, 28,  1)  (  6,  1,  1)  ( 14,  1,  2)
  0 -0.3968E-03  0 -0.7878E-03  0 -0.8264E-04  1 -0.3074E-02  0 -0.4427E-03
   ( 14,  1,  1)  ( 14,  1,  1)  ( 14,  1,  1)  (  6,  1,  1)  ( 14,  1,  1)
  0 -0.3210E-03  0 -0.5222E-04  1 -0.9263E-03  0 -0.6739E-04  1 -0.2818E-03
   ( 14,  1,  1)  ( 14,  1,  2)  (  6,  1,  1)  ( 13,  2, 20)  (  6,  1,  1)
  0 -0.9529E-04  1  0.8103E-04
   (  6,  1,  1)  ( 14,  1,  1)

 MAXIMUM RESIDUAL FOR EACH ITERATION (1 INDICATES THE FIRST INNER ITERATION):

    RESIDUAL       RESIDUAL       RESIDUAL       RESIDUAL       RESIDUAL    
   LAYER,ROW,COL  LAYER,ROW,COL  LAYER,ROW,COL  LAYER,ROW,COL  LAYER,ROW,COL
 ---------------------------------------------------------------------------
  1  -9.360      0  -3.545      0  0.4124      0  0.3875      0 -0.1204    
   (  9,  3,  3)  ( 13,  2,  2)  (  8,  2,  2)  (  9,  2,  2)  (  9,  1,  1)
  0 -0.6334E-01  0  0.3524E-01  0  0.1454E-01  0  0.5772E-02  0 -0.2989E-02
   ( 10,  2,  2)  ( 14,  1,  1)  ( 14,  1,  1)  ( 14,  2,  2)  ( 11,  3,  3)
  1  -49.58      0  -11.70      0  -3.702      0  0.4193      0  0.2587    
   (  7,  1,  1)  (  7,  1,  1)  (  7,  1,  1)  (  8,  1,  1)  (  8,  1,  1)
  0  0.9906E-01  0  0.5384E-01  0  0.2353E-01  0  0.1579E-01  1   126.2    
   (  8,  1,  1)  (  8,  1,  1)  (  8,  1,  1)  (  8,  1,  1)  (  7,  1,  1)
  0   10.70      0  -3.353      0  -1.201      0 -0.8375      0 -0.2822    
   (  7,  1,  1)  (  8,  1,  1)  (  8,  1,  1)  (  8,  1,  1)  (  8,  1,  1)
  0 -0.1763      0 -0.6796E-01  0 -0.4090E-01  1  -1.038      0 -0.1207    
   (  8,  1,  1)  (  8,  1,  1)  (  8,  1,  1)  (  6,  1,  1)  (  6,  1,  1)
  0 -0.6828E-01  0  0.2107E-01  0  0.1567E-01  1  0.1387      0  0.5330E-01
   (  6,  1,  1)  ( 10,  2,  2)  (  9,  2,  2)  (  6,  1,  1)  (  6,  1,  1)
  0  0.1019E-01  0  0.6531E-02  1  0.6450E-01  0  0.1779E-01  1  0.1332    
   (  8,  1,  1)  (  8,  1,  1)  (  6,  1,  1)  (  6,  1,  1)  (  6,  1,  1)
  0  0.2517E-01  1  0.4775E-01
   (  6,  1,  1)  (  6,  1,  1)



 NO OUTPUT CONTROL FOR STRESS PERIOD    1   TIME STEP   8
 
 SOLVING FOR HEAD 
     5 CALLS TO PCG ROUTINE FOR TIME STEP   9 IN STRESS PERIOD    1
    26 TOTAL ITERATIONS

 MAXIMUM HEAD CHANGE FOR EACH ITERATION (1 INDICATES THE FIRST INNER ITERATION):

    HEAD CHANGE    HEAD CHANGE    HEAD CHANGE    HEAD CHANGE    HEAD CHANGE 
   LAYER,ROW,COL  LAYER,ROW,COL  LAYER,ROW,COL  LAYER,ROW,COL  LAYER,ROW,COL
 ---------------------------------------------------------------------------
  1  0.6652      0 -0.6218E-01  0 -0.2575E-01  0 -0.2524E-02  0 -0.3040E-02
   (  8,  3,  1)  ( 14,  3,  1)  ( 14,  1,  1)  ( 14,  1,  1)  ( 14,  1,  1)
  0  0.2528E-03  0  0.5957E-03  0  0.1445E-03  0  0.9234E-04  1  0.2136    
   ( 11,  1,  1)  ( 12,  1,  1)  ( 14, 20,  1)  ( 13,  2,  2)  (  7,  1,  1)
  0 -0.6831E-01  0 -0.1333E-01  0 -0.2696E-02  0 -0.2121E-02  0  0.1013E-02
   ( 14,  1,  1)  ( 14,  1,  2)  ( 14,  2,  2)  ( 13,  2,  2)  ( 14,  1,  1)
  0  0.2359E-03  0  0.9078E-04  1 -0.6182E-02  0  0.2004E-02  0  0.2112E-03
   ( 14,  1,  1)  ( 14,  1,  3)  (  8,  2,  2)  ( 14,  2,  2)  ( 14,  2,  2)
  0  0.3101E-03  0  0.1478E-03  0  0.3641E-04  1 -0.3968E-03  0 -0.8292E-04
   ( 14,  2,  1)  ( 14,  1,  1)  (  9,  2,  2)  (  8,  2,  2)  (  8,  2,  2)
  1  0.4706E-04
   ( 13,  2,  2)

 MAXIMUM RESIDUAL FOR EACH ITERATION (1 INDICATES THE FIRST INNER ITERATION):

    RESIDUAL       RESIDUAL       RESIDUAL       RESIDUAL       RESIDUAL    
   LAYER,ROW,COL  LAYER,ROW,COL  LAYER,ROW,COL  LAYER,ROW,COL  LAYER,ROW,COL
 ---------------------------------------------------------------------------
  1  -6.832      0   2.005      0  0.3661      0 -0.3024      0 -0.7101E-01
   (  9,  3,  3)  ( 14,  2,  2)  ( 14,  1,  1)  ( 13,  3,  3)  ( 10,  1,  1)
  0 -0.4820E-01  0 -0.1988E-01  0  0.1015E-01  0  0.3106E-02  1  -52.09    
   ( 10,  1,  1)  ( 13,  2,  2)  ( 14,  1,  1)  ( 14,  1,  1)  (  7,  1,  1)
  0  -7.467      0  -2.380      0  -1.282      0 -0.3426      0  0.1235    
   (  7,  1,  1)  (  7,  1,  1)  (  7,  1,  1)  (  7,  1,  1)  (  8,  1,  1)
  0  0.7099E-01  0  0.3868E-01  1   1.190      0  0.2575      0  0.1488    
   (  8,  1,  1)  (  8,  1,  1)  (  8,  2,  2)  (  8,  2,  2)  (  8,  2,  2)
  0 -0.7207E-01  0 -0.4148E-01  0 -0.2310E-01  1  0.9413E-01  0  0.5319E-01
   (  9,  2,  2)  (  9,  2,  2)  (  9,  2,  2)  (  8,  2,  2)  (  8,  2,  2)
  1  0.5328E-01
   (  8,  2,  2)



 NO OUTPUT CONTROL FOR STRESS PERIOD    1   TIME STEP   9
 
 SOLVING FOR HEAD 

 CELL CONVERSIONS FOR ITER.=  3  LAYER=  8  STEP= 10  PERIOD=   1   (ROW,COL)
    WET(  3,  3)   
     6 CALLS TO PCG ROUTINE FOR TIME STEP  10 IN STRESS PERIOD    1
    37 TOTAL ITERATIONS

 MAXIMUM HEAD CHANGE FOR EACH ITERATION (1 INDICATES THE FIRST INNER ITERATION):

    HEAD CHANGE    HEAD CHANGE    HEAD CHANGE    HEAD CHANGE    HEAD CHANGE 
   LAYER,ROW,COL  LAYER,ROW,COL  LAYER,ROW,COL  LAYER,ROW,COL  LAYER,ROW,COL
 ---------------------------------------------------------------------------
  1  0.7723      0 -0.1019      0 -0.3487E-01  0  0.1340E-02  0  0.2742E-02
   (  6,  1,  1)  ( 14,  1,  1)  ( 14,  2,  2)  ( 14,  4, 29)  ( 12,  2,  1)
  0  0.6411E-03  0  0.6083E-03  0  0.1503E-03  0 -0.1221E-03  0 -0.2467E-04
   ( 13,  2,  2)  ( 12,  2,  2)  ( 14, 20,  1)  ( 14,  2,  2)  ( 14,  1, 19)
  1  0.1629      0  0.6680E-01  0  0.1696E-01  0  0.3836E-02  0 -0.2469E-02
   (  9,  3,  3)  (  9,  3,  3)  ( 14,  1,  2)  ( 11,  1,  1)  ( 14,  2,  2)
  0 -0.8334E-03  0 -0.5232E-03  0  0.1479E-03  0  0.9786E-04  1 -0.2154    
   ( 14,  1,  1)  ( 14,  2,  1)  (  7,  1,  2)  ( 14,  1,  1)  (  9,  3,  3)
  0  0.7842E-01  0 -0.9457E-02  0  0.2659E-02  0  0.1010E-02  0  0.1178E-02
   ( 13,  3,  3)  ( 13,  2,  1)  (  8,  3,  3)  ( 10,  1,  2)  ( 14,  2,  2)
  0  0.1100E-03  0 -0.1849E-03  0 -0.4474E-04  1  0.4691E-02  0 -0.1773E-02
   ( 14,  1,  1)  ( 12,  2,  2)  ( 14,  1,  1)  (  8,  3,  3)  ( 14,  2,  2)
  0  0.4803E-03  0 -0.1334E-03  0  0.1625E-03  0 -0.4084E-04  1  0.3617E-03
   (  8,  2,  1)  ( 14,  1,  1)  ( 14,  2,  2)  (  9,  2,  2)  (  8,  3,  3)
  0  0.8665E-04  1 -0.3732E-04
   (  8,  3,  3)  ( 14,  2,  2)

 MAXIMUM RESIDUAL FOR EACH ITERATION (1 INDICATES THE FIRST INNER ITERATION):

    RESIDUAL       RESIDUAL       RESIDUAL       RESIDUAL       RESIDUAL    
   LAYER,ROW,COL  LAYER,ROW,COL  LAYER,ROW,COL  LAYER,ROW,COL  LAYER,ROW,COL
 ---------------------------------------------------------------------------
  1  -6.777      0   2.746      0  0.2765      0 -0.2175      0 -0.1829    
   (  9,  3,  3)  ( 14,  2,  2)  (  8,  2,  2)  ( 10,  1,  2)  ( 13,  2,  2)
  0 -0.8998E-01  0  0.2616E-01  0  0.1551E-01  0  0.3470E-02  0  0.2275E-02
   ( 13,  2,  2)  ( 14,  2,  2)  ( 14,  2,  2)  ( 14,  1,  4)  ( 14,  1,  4)
  1  -27.91      0   4.224      0   1.559      0  0.8219      0  0.3204    
   (  9,  3,  3)  ( 10,  3,  3)  ( 10,  3,  3)  ( 10,  3,  3)  ( 10,  3,  3)
  0  0.1274      0  0.4871E-01  0 -0.2963E-01  0 -0.1769E-01  1  -40.05    
   ( 10,  3,  3)  ( 10,  1,  4)  (  8,  1,  1)  (  8,  1,  1)  (  8,  3,  3)
  0  -3.219      0  -1.408      0 -0.6292      0 -0.3865      0 -0.6828E-01
   (  8,  3,  3)  (  8,  3,  3)  ( 10,  3,  3)  ( 10,  3,  3)  ( 10,  3,  3)
  0 -0.3458E-01  0  0.1887E-01  0  0.1220E-01  1  -1.191      0 -0.3055    
   (  8,  3,  3)  ( 11,  3,  3)  ( 11,  3,  3)  (  8,  3,  3)  (  8,  3,  3)
  0 -0.1354      0 -0.8792E-01  0 -0.3884E-01  0  0.1980E-01  1 -0.1111    
   (  8,  3,  3)  (  8,  3,  3)  (  8,  3,  3)  (  9,  2,  2)  (  8,  3,  3)
  0 -0.6310E-01  1 -0.6496E-01
   (  8,  3,  3)  (  8,  3,  3)



 OUTPUT CONTROL FOR STRESS PERIOD    1   TIME STEP  10
    SAVE BUDGET
    PRINT HEAD FOR ALL LAYERS
    PRINT BUDGET
 UBDSV1 SAVING "         STORAGE" ON UNIT  32 AT TIME STEP 10, STRESS PERIOD   1
 UBDSV2 SAVING "   CONSTANT HEAD" ON UNIT  32 AT TIME STEP 10, STRESS PERIOD   1
 UBDSV1 SAVING "FLOW RIGHT FACE " ON UNIT  32 AT TIME STEP 10, STRESS PERIOD   1
 UBDSV1 SAVING "FLOW FRONT FACE " ON UNIT  32 AT TIME STEP 10, STRESS PERIOD   1
 UBDSV1 SAVING "FLOW LOWER FACE " ON UNIT  32 AT TIME STEP 10, STRESS PERIOD   1
 UBDSV3 SAVING "        RECHARGE" ON UNIT  32 AT TIME STEP 10, STRESS PERIOD   1
1
              HEAD IN LAYER   1 AT END OF TIME STEP  10 IN STRESS PERIOD    1
  ---------------------------------------------------------------------------

            1           2           3           4           5           6           7           8           9          10
           11          12          13          14          15          16          17          18          19          20
           21          22          23          24          25          26          27          28          29          30
           31          32          33          34          35          36          37          38          39          40
 ........................................................................................................................
   1   -99.90      -99.90      -99.90      -99.90      -99.90      -99.90      -99.90      -99.90      -99.90      -99.90    
       -99.90      -99.90      -99.90      -99.90      -99.90      -99.90      -99.90      -99.90      -99.90      -99.90    
       -99.90      -99.90      -99.90      -99.90      -99.90      -99.90      -99.90      -99.90      -99.90      -99.90    
       -99.90      -99.90      -99.90      -99.90      -99.90      -99.90      -99.90      -99.90      -99.90      -99.90    
   2   -99.90      -99.90      -99.90      -99.90      -99.90      -99.90      -99.90      -99.90      -99.90      -99.90    
       -99.90      -99.90      -99.90      -99.90      -99.90      -99.90      -99.90      -99.90      -99.90      -99.90    
       -99.90      -99.90      -99.90      -99.90      -99.90      -99.90      -99.90      -99.90      -99.90      -99.90    
       -99.90      -99.90      -99.90      -99.90      -99.90      -99.90      -99.90      -99.90      -99.90      -99.90    
   3   -99.90      -99.90      -99.90      -99.90      -99.90      -99.90      -99.90      -99.90      -99.90      -99.90    
       -99.90      -99.90      -99.90      -99.90      -99.90      -99.90      -99.90      -99.90      -99.90      -99.90    
       -99.90      -99.90      -99.90      -99.90      -99.90      -99.90      -99.90      -99.90      -99.90      -99.90    
       -99.90      -99.90      -99.90      -99.90      -99.90      -99.90      -99.90      -99.90      -99.90      -99.90    
   4   -99.90      -99.90      -99.90      -99.90      -99.90      -99.90      -99.90      -99.90      -99.90      -99.90    
       -99.90      -99.90      -99.90      -99.90      -99.90      -99.90      -99.90      -99.90      -99.90      -99.90    
       -99.90      -99.90      -99.90      -99.90      -99.90      -99.90      -99.90      -99.90      -99.90      -99.90    
       -99.90      -99.90      -99.90      -99.90      -99.90      -99.90      -99.90      -99.90      -99.90      -99.90    
   5   -99.90      -99.90      -99.90      -99.90      -99.90      -99.90      -99.90      -99.90      -99.90      -99.90    
       -99.90      -99.90      -99.90      -99.90      -99.90      -99.90      -99.90      -99.90      -99.90      -99.90    
       -99.90      -99.90      -99.90      -99.90      -99.90      -99.90      -99.90      -99.90      -99.90      -99.90    
       -99.90      -99.90      -99.90      -99.90      -99.90      -99.90      -99.90      -99.90      -99.90      -99.90    
   6   -99.90      -99.90      -99.90      -99.90      -99.90      -99.90      -99.90      -99.90      -99.90      -99.90    
       -99.90      -99.90      -99.90      -99.90      -99.90      -99.90      -99.90      -99.90      -99.90      -99.90    
       -99.90      -99.90      -99.90      -99.90      -99.90      -99.90      -99.90      -99.90      -99.90      -99.90    
       -99.90      -99.90      -99.90      -99.90      -99.90      -99.90      -99.90      -99.90      -99.90      -99.90    
   7   -99.90      -99.90      -99.90      -99.90      -99.90      -99.90      -99.90      -99.90      -99.90      -99.90    
       -99.90      -99.90      -99.90      -99.90      -99.90      -99.90      -99.90      -99.90      -99.90      -99.90    
       -99.90      -99.90      -99.90      -99.90      -99.90      -99.90      -99.90      -99.90      -99.90      -99.90    
       -99.90      -99.90      -99.90      -99.90      -99.90      -99.90      -99.90      -99.90      -99.90      -99.90    
   8   -99.90      -99.90      -99.90      -99.90      -99.90      -99.90      -99.90      -99.90      -99.90      -99.90    
       -99.90      -99.90      -99.90      -99.90      -99.90      -99.90      -99.90      -99.90      -99.90      -99.90    
       -99.90      -99.90      -99.90      -99.90      -99.90      -99.90      -99.90      -99.90      -99.90      -99.90    
       -99.90      -99.90      -99.90      -99.90      -99.90      -99.90      -99.90      -99.90      -99.90      -99.90    
   9   -99.90      -99.90      -99.90      -99.90      -99.90      -99.90      -99.90      -99.90      -99.90      -99.90    
       -99.90      -99.90      -99.90      -99.90      -99.90      -99.90      -99.90      -99.90      -99.90      -99.90    
       -99.90      -99.90      -99.90      -99.90      -99.90      -99.90      -99.90      -99.90      -99.90      -99.90    
       -99.90      -99.90      -99.90      -99.90      -99.90      -99.90      -99.90      -99.90      -99.90      -99.90    
  10   -99.90      -99.90      -99.90      -99.90      -99.90      -99.90      -99.90      -99.90      -99.90      -99.90    
       -99.90      -99.90      -99.90      -99.90      -99.90      -99.90      -99.90      -99.90      -99.90      -99.90    
       -99.90      -99.90      -99.90      -99.90      -99.90      -99.90      -99.90      -99.90      -99.90      -99.90    
       -99.90      -99.90      -99.90      -99.90      -99.90      -99.90      -99.90      -99.90      -99.90      -99.90    
  11   -99.90      -99.90      -99.90      -99.90      -99.90      -99.90      -99.90      -99.90      -99.90      -99.90    
       -99.90      -99.90      -99.90      -99.90      -99.90      -99.90      -99.90      -99.90      -99.90      -99.90    
       -99.90      -99.90      -99.90      -99.90      -99.90      -99.90      -99.90      -99.90      -99.90      -99.90    
       -99.90      -99.90      -99.90      -99.90      -99.90      -99.90      -99.90      -99.90      -99.90      -99.90    
  12   -99.90      -99.90      -99.90      -99.90      -99.90      -99.90      -99.90      -99.90      -99.90      -99.90    
       -99.90      -99.90      -99.90      -99.90      -99.90      -99.90      -99.90      -99.90      -99.90      -99.90    
       -99.90      -99.90      -99.90      -99.90      -99.90      -99.90      -99.90      -99.90      -99.90      -99.90    
       -99.90      -99.90      -99.90      -99.90      -99.90      -99.90      -99.90      -99.90      -99.90      -99.90    
  13   -99.90      -99.90      -99.90      -99.90      -99.90      -99.90      -99.90      -99.90      -99.90      -99.90    
       -99.90      -99.90      -99.90      -99.90      -99.90      -99.90      -99.90      -99.90      -99.90      -99.90    
       -99.90      -99.90      -99.90      -99.90      -99.90      -99.90      -99.90      -99.90      -99.90      -99.90    
       -99.90      -99.90      -99.90      -99.90      -99.90      -99.90      -99.90      -99.90      -99.90      -99.90    
  14   -99.90      -99.90      -99.90      -99.90      -99.90      -99.90      -99.90      -99.90      -99.90      -99.90    
       -99.90      -99.90      -99.90      -99.90      -99.90      -99.90      -99.90      -99.90      -99.90      -99.90    
       -99.90      -99.90      -99.90      -99.90      -99.90      -99.90      -99.90      -99.90      -99.90      -99.90    
       -99.90      -99.90      -99.90      -99.90      -99.90      -99.90      -99.90      -99.90      -99.90      -99.90    
  15   -99.90      -99.90      -99.90      -99.90      -99.90      -99.90      -99.90      -99.90      -99.90      -99.90    
       -99.90      -99.90      -99.90      -99.90      -99.90      -99.90      -99.90      -99.90      -99.90      -99.90    
       -99.90      -99.90      -99.90      -99.90      -99.90      -99.90      -99.90      -99.90      -99.90      -99.90    
       -99.90      -99.90      -99.90      -99.90      -99.90      -99.90      -99.90      -99.90      -99.90      -99.90    
  16   -99.90      -99.90      -99.90      -99.90      -99.90      -99.90      -99.90      -99.90      -99.90      -99.90    
       -99.90      -99.90      -99.90      -99.90      -99.90      -99.90      -99.90      -99.90      -99.90      -99.90    
       -99.90      -99.90      -99.90      -99.90      -99.90      -99.90      -99.90      -99.90      -99.90      -99.90    
       -99.90      -99.90      -99.90      -99.90      -99.90      -99.90      -99.90      -99.90      -99.90      -99.90    
  17   -99.90      -99.90      -99.90      -99.90      -99.90      -99.90      -99.90      -99.90      -99.90      -99.90    
       -99.90      -99.90      -99.90      -99.90      -99.90      -99.90      -99.90      -99.90      -99.90      -99.90    
       -99.90      -99.90      -99.90      -99.90      -99.90      -99.90      -99.90      -99.90      -99.90      -99.90    
       -99.90      -99.90      -99.90      -99.90      -99.90      -99.90      -99.90      -99.90      -99.90      -99.90    
  18   -99.90      -99.90      -99.90      -99.90      -99.90      -99.90      -99.90      -99.90      -99.90      -99.90    
       -99.90      -99.90      -99.90      -99.90      -99.90      -99.90      -99.90      -99.90      -99.90      -99.90    
       -99.90      -99.90      -99.90      -99.90      -99.90      -99.90      -99.90      -99.90      -99.90      -99.90    
       -99.90      -99.90      -99.90      -99.90      -99.90      -99.90      -99.90      -99.90      -99.90      -99.90    
  19   -99.90      -99.90      -99.90      -99.90      -99.90      -99.90      -99.90      -99.90      -99.90      -99.90    
       -99.90      -99.90      -99.90      -99.90      -99.90      -99.90      -99.90      -99.90      -99.90      -99.90    
       -99.90      -99.90      -99.90      -99.90      -99.90      -99.90      -99.90      -99.90      -99.90      -99.90    
       -99.90      -99.90      -99.90      -99.90      -99.90      -99.90      -99.90      -99.90      -99.90      -99.90    
  20   -99.90      -99.90      -99.90      -99.90      -99.90      -99.90      -99.90      -99.90      -99.90      -99.90    
       -99.90      -99.90      -99.90      -99.90      -99.90      -99.90      -99.90      -99.90      -99.90      -99.90    
       -99.90      -99.90      -99.90      -99.90      -99.90      -99.90      -99.90      -99.90      -99.90      -99.90    
       -99.90      -99.90      -99.90      -99.90      -99.90      -99.90      -99.90      -99.90      -99.90      -99.90    
  21   -99.90      -99.90      -99.90      -99.90      -99.90      -99.90      -99.90      -99.90      -99.90      -99.90    
       -99.90      -99.90      -99.90      -99.90      -99.90      -99.90      -99.90      -99.90      -99.90      -99.90    
       -99.90      -99.90      -99.90      -99.90      -99.90      -99.90      -99.90      -99.90      -99.90      -99.90    
       -99.90      -99.90      -99.90      -99.90      -99.90      -99.90      -99.90      -99.90      -99.90      -99.90    
  22   -99.90      -99.90      -99.90      -99.90      -99.90      -99.90      -99.90      -99.90      -99.90      -99.90    
       -99.90      -99.90      -99.90      -99.90      -99.90      -99.90      -99.90      -99.90      -99.90      -99.90    
       -99.90      -99.90      -99.90      -99.90      -99.90      -99.90      -99.90      -99.90      -99.90      -99.90    
       -99.90      -99.90      -99.90      -99.90      -99.90      -99.90      -99.90      -99.90      -99.90      -99.90    
  23   -99.90      -99.90      -99.90      -99.90      -99.90      -99.90      -99.90      -99.90      -99.90      -99.90    
       -99.90      -99.90      -99.90      -99.90      -99.90      -99.90      -99.90      -99.90      -99.90      -99.90    
       -99.90      -99.90      -99.90      -99.90      -99.90      -99.90      -99.90      -99.90      -99.90      -99.90    
       -99.90      -99.90      -99.90      -99.90      -99.90      -99.90      -99.90      -99.90      -99.90      -99.90    
  24   -99.90      -99.90      -99.90      -99.90      -99.90      -99.90      -99.90      -99.90      -99.90      -99.90    
       -99.90      -99.90      -99.90      -99.90      -99.90      -99.90      -99.90      -99.90      -99.90      -99.90    
       -99.90      -99.90      -99.90      -99.90      -99.90      -99.90      -99.90      -99.90      -99.90      -99.90    
       -99.90      -99.90      -99.90      -99.90      -99.90      -99.90      -99.90      -99.90      -99.90      -99.90    
  25   -99.90      -99.90      -99.90      -99.90      -99.90      -99.90      -99.90      -99.90      -99.90      -99.90    
       -99.90      -99.90      -99.90      -99.90      -99.90      -99.90      -99.90      -99.90      -99.90      -99.90    
       -99.90      -99.90      -99.90      -99.90      -99.90      -99.90      -99.90      -99.90      -99.90      -99.90    
       -99.90      -99.90      -99.90      -99.90      -99.90      -99.90      -99.90      -99.90      -99.90      -99.90    
  26   -99.90      -99.90      -99.90      -99.90      -99.90      -99.90      -99.90      -99.90      -99.90      -99.90    
       -99.90      -99.90      -99.90      -99.90      -99.90      -99.90      -99.90      -99.90      -99.90      -99.90    
       -99.90      -99.90      -99.90      -99.90      -99.90      -99.90      -99.90      -99.90      -99.90      -99.90    
       -99.90      -99.90      -99.90      -99.90      -99.90      -99.90      -99.90      -99.90      -99.90      -99.90    
  27   -99.90      -99.90      -99.90      -99.90      -99.90      -99.90      -99.90      -99.90      -99.90      -99.90    
       -99.90      -99.90      -99.90      -99.90      -99.90      -99.90      -99.90      -99.90      -99.90      -99.90    
       -99.90      -99.90      -99.90      -99.90      -99.90      -99.90      -99.90      -99.90      -99.90      -99.90    
       -99.90      -99.90      -99.90      -99.90      -99.90      -99.90      -99.90      -99.90      -99.90      -99.90    
  28   -99.90      -99.90      -99.90      -99.90      -99.90      -99.90      -99.90      -99.90      -99.90      -99.90    
       -99.90      -99.90      -99.90      -99.90      -99.90      -99.90      -99.90      -99.90      -99.90      -99.90    
       -99.90      -99.90      -99.90      -99.90      -99.90      -99.90      -99.90      -99.90      -99.90      -99.90    
       -99.90      -99.90      -99.90      -99.90      -99.90      -99.90      -99.90      -99.90      -99.90      -99.90    
  29   -99.90      -99.90      -99.90      -99.90      -99.90      -99.90      -99.90      -99.90      -99.90      -99.90    
       -99.90      -99.90      -99.90      -99.90      -99.90      -99.90      -99.90      -99.90      -99.90      -99.90    
       -99.90      -99.90      -99.90      -99.90      -99.90      -99.90      -99.90      -99.90      -99.90      -99.90    
       -99.90      -99.90      -99.90      -99.90      -99.90      -99.90      -99.90      -99.90      -99.90      -99.90    
  30   -99.90      -99.90      -99.90      -99.90      -99.90      -99.90      -99.90      -99.90      -99.90      -99.90    
       -99.90      -99.90      -99.90      -99.90      -99.90      -99.90      -99.90      -99.90      -99.90      -99.90    
       -99.90      -99.90      -99.90      -99.90      -99.90      -99.90      -99.90      -99.90      -99.90      -99.90    
       -99.90      -99.90      -99.90      -99.90      -99.90      -99.90      -99.90      -99.90      -99.90      -99.90    
  31   -99.90      -99.90      -99.90      -99.90      -99.90      -99.90      -99.90      -99.90      -99.90      -99.90    
       -99.90      -99.90      -99.90      -99.90      -99.90      -99.90      -99.90      -99.90      -99.90      -99.90    
       -99.90      -99.90      -99.90      -99.90      -99.90      -99.90      -99.90      -99.90      -99.90      -99.90    
       -99.90      -99.90      -99.90      -99.90      -99.90      -99.90      -99.90      -99.90      -99.90      -99.90    
  32   -99.90      -99.90      -99.90      -99.90      -99.90      -99.90      -99.90      -99.90      -99.90      -99.90    
       -99.90      -99.90      -99.90      -99.90      -99.90      -99.90      -99.90      -99.90      -99.90      -99.90    
       -99.90      -99.90      -99.90      -99.90      -99.90      -99.90      -99.90      -99.90      -99.90      -99.90    
       -99.90      -99.90      -99.90      -99.90      -99.90      -99.90      -99.90      -99.90      -99.90      -99.90    
  33   -99.90      -99.90      -99.90      -99.90      -99.90      -99.90      -99.90      -99.90      -99.90      -99.90    
       -99.90      -99.90      -99.90      -99.90      -99.90      -99.90      -99.90      -99.90      -99.90      -99.90    
       -99.90      -99.90      -99.90      -99.90      -99.90      -99.90      -99.90      -99.90      -99.90      -99.90    
       -99.90      -99.90      -99.90      -99.90      -99.90      -99.90      -99.90      -99.90      -99.90      -99.90    
  34   -99.90      -99.90      -99.90      -99.90      -99.90      -99.90      -99.90      -99.90      -99.90      -99.90    
       -99.90      -99.90      -99.90      -99.90      -99.90      -99.90      -99.90      -99.90      -99.90      -99.90    
       -99.90      -99.90      -99.90      -99.90      -99.90      -99.90      -99.90      -99.90      -99.90      -99.90    
       -99.90      -99.90      -99.90      -99.90      -99.90      -99.90      -99.90      -99.90      -99.90      -99.90    
  35   -99.90      -99.90      -99.90      -99.90      -99.90      -99.90      -99.90      -99.90      -99.90      -99.90    
       -99.90      -99.90      -99.90      -99.90      -99.90      -99.90      -99.90      -99.90      -99.90      -99.90    
       -99.90      -99.90      -99.90      -99.90      -99.90      -99.90      -99.90      -99.90      -99.90      -99.90    
       -99.90      -99.90      -99.90      -99.90      -99.90      -99.90      -99.90      -99.90      -99.90      -99.90    
  36   -99.90      -99.90      -99.90      -99.90      -99.90      -99.90      -99.90      -99.90      -99.90      -99.90    
       -99.90      -99.90      -99.90      -99.90      -99.90      -99.90      -99.90      -99.90      -99.90      -99.90    
       -99.90      -99.90      -99.90      -99.90      -99.90      -99.90      -99.90      -99.90      -99.90      -99.90    
       -99.90      -99.90      -99.90      -99.90      -99.90      -99.90      -99.90      -99.90      -99.90      -99.90    
  37   -99.90      -99.90      -99.90      -99.90      -99.90      -99.90      -99.90      -99.90      -99.90      -99.90    
       -99.90      -99.90      -99.90      -99.90      -99.90      -99.90      -99.90      -99.90      -99.90      -99.90    
       -99.90      -99.90      -99.90      -99.90      -99.90      -99.90      -99.90      -99.90      -99.90      -99.90    
       -99.90      -99.90      -99.90      -99.90      -99.90      -99.90      -99.90      -99.90      -99.90      -99.90    
  38   -99.90      -99.90      -99.90      -99.90      -99.90      -99.90      -99.90      -99.90      -99.90      -99.90    
       -99.90      -99.90      -99.90      -99.90      -99.90      -99.90      -99.90      -99.90      -99.90      -99.90    
       -99.90      -99.90      -99.90      -99.90      -99.90      -99.90      -99.90      -99.90      -99.90      -99.90    
       -99.90      -99.90      -99.90      -99.90      -99.90      -99.90      -99.90      -99.90      -99.90      -99.90    
  39   -99.90      -99.90      -99.90      -99.90      -99.90      -99.90      -99.90      -99.90      -99.90      -99.90    
       -99.90      -99.90      -99.90      -99.90      -99.90      -99.90      -99.90      -99.90      -99.90      -99.90    
       -99.90      -99.90      -99.90      -99.90      -99.90      -99.90      -99.90      -99.90      -99.90      -99.90    
       -99.90      -99.90      -99.90      -99.90      -99.90      -99.90      -99.90      -99.90      -99.90      -99.90    
  40   -99.90      -99.90      -99.90      -99.90      -99.90      -99.90      -99.90      -99.90      -99.90      -99.90    
       -99.90      -99.90      -99.90      -99.90      -99.90      -99.90      -99.90      -99.90      -99.90      -99.90    
       -99.90      -99.90      -99.90      -99.90      -99.90      -99.90      -99.90      -99.90      -99.90      -99.90    
       -99.90      -99.90      -99.90      -99.90      -99.90      -99.90      -99.90      -99.90      -99.90      -99.90    
1
              HEAD IN LAYER   2 AT END OF TIME STEP  10 IN STRESS PERIOD    1
  ---------------------------------------------------------------------------

            1           2           3           4           5           6           7           8           9          10
           11          12          13          14          15          16          17          18          19          20
           21          22          23          24          25          26          27          28          29          30
           31          32          33          34          35          36          37          38          39          40
 ........................................................................................................................
   1   -99.90      -99.90      -99.90      -99.90      -99.90      -99.90      -99.90      -99.90      -99.90      -99.90    
       -99.90      -99.90      -99.90      -99.90      -99.90      -99.90      -99.90      -99.90      -99.90      -99.90    
       -99.90      -99.90      -99.90      -99.90      -99.90      -99.90      -99.90      -99.90      -99.90      -99.90    
       -99.90      -99.90      -99.90      -99.90      -99.90      -99.90      -99.90      -99.90      -99.90      -99.90    
   2   -99.90      -99.90      -99.90      -99.90      -99.90      -99.90      -99.90      -99.90      -99.90      -99.90    
       -99.90      -99.90      -99.90      -99.90      -99.90      -99.90      -99.90      -99.90      -99.90      -99.90    
       -99.90      -99.90      -99.90      -99.90      -99.90      -99.90      -99.90      -99.90      -99.90      -99.90    
       -99.90      -99.90      -99.90      -99.90      -99.90      -99.90      -99.90      -99.90      -99.90      -99.90    
   3   -99.90      -99.90      -99.90      -99.90      -99.90      -99.90      -99.90      -99.90      -99.90      -99.90    
       -99.90      -99.90      -99.90      -99.90      -99.90      -99.90      -99.90      -99.90      -99.90      -99.90    
       -99.90      -99.90      -99.90      -99.90      -99.90      -99.90      -99.90      -99.90      -99.90      -99.90    
       -99.90      -99.90      -99.90      -99.90      -99.90      -99.90      -99.90      -99.90      -99.90      -99.90    
   4   -99.90      -99.90      -99.90      -99.90      -99.90      -99.90      -99.90      -99.90      -99.90      -99.90    
       -99.90      -99.90      -99.90      -99.90      -99.90      -99.90      -99.90      -99.90      -99.90      -99.90    
       -99.90      -99.90      -99.90      -99.90      -99.90      -99.90      -99.90      -99.90      -99.90      -99.90    
       -99.90      -99.90      -99.90      -99.90      -99.90      -99.90      -99.90      -99.90      -99.90      -99.90    
   5   -99.90      -99.90      -99.90      -99.90      -99.90      -99.90      -99.90      -99.90      -99.90      -99.90    
       -99.90      -99.90      -99.90      -99.90      -99.90      -99.90      -99.90      -99.90      -99.90      -99.90    
       -99.90      -99.90      -99.90      -99.90      -99.90      -99.90      -99.90      -99.90      -99.90      -99.90    
       -99.90      -99.90      -99.90      -99.90      -99.90      -99.90      -99.90      -99.90      -99.90      -99.90    
   6   -99.90      -99.90      -99.90      -99.90      -99.90      -99.90      -99.90      -99.90      -99.90      -99.90    
       -99.90      -99.90      -99.90      -99.90      -99.90      -99.90      -99.90      -99.90      -99.90      -99.90    
       -99.90      -99.90      -99.90      -99.90      -99.90      -99.90      -99.90      -99.90      -99.90      -99.90    
       -99.90      -99.90      -99.90      -99.90      -99.90      -99.90      -99.90      -99.90      -99.90      -99.90    
   7   -99.90      -99.90      -99.90      -99.90      -99.90      -99.90      -99.90      -99.90      -99.90      -99.90    
       -99.90      -99.90      -99.90      -99.90      -99.90      -99.90      -99.90      -99.90      -99.90      -99.90    
       -99.90      -99.90      -99.90      -99.90      -99.90      -99.90      -99.90      -99.90      -99.90      -99.90    
       -99.90      -99.90      -99.90      -99.90      -99.90      -99.90      -99.90      -99.90      -99.90      -99.90    
   8   -99.90      -99.90      -99.90      -99.90      -99.90      -99.90      -99.90      -99.90      -99.90      -99.90    
       -99.90      -99.90      -99.90      -99.90      -99.90      -99.90      -99.90      -99.90      -99.90      -99.90    
       -99.90      -99.90      -99.90      -99.90      -99.90      -99.90      -99.90      -99.90      -99.90      -99.90    
       -99.90      -99.90      -99.90      -99.90      -99.90      -99.90      -99.90      -99.90      -99.90      -99.90    
   9   -99.90      -99.90      -99.90      -99.90      -99.90      -99.90      -99.90      -99.90      -99.90      -99.90    
       -99.90      -99.90      -99.90      -99.90      -99.90      -99.90      -99.90      -99.90      -99.90      -99.90    
       -99.90      -99.90      -99.90      -99.90      -99.90      -99.90      -99.90      -99.90      -99.90      -99.90    
       -99.90      -99.90      -99.90      -99.90      -99.90      -99.90      -99.90      -99.90      -99.90      -99.90    
  10   -99.90      -99.90      -99.90      -99.90      -99.90      -99.90      -99.90      -99.90      -99.90      -99.90    
       -99.90      -99.90      -99.90      -99.90      -99.90      -99.90      -99.90      -99.90      -99.90      -99.90    
       -99.90      -99.90      -99.90      -99.90      -99.90      -99.90      -99.90      -99.90      -99.90      -99.90    
       -99.90      -99.90      -99.90      -99.90      -99.90      -99.90      -99.90      -99.90      -99.90      -99.90    
  11   -99.90      -99.90      -99.90      -99.90      -99.90      -99.90      -99.90      -99.90      -99.90      -99.90    
       -99.90      -99.90      -99.90      -99.90      -99.90      -99.90      -99.90      -99.90      -99.90      -99.90    
       -99.90      -99.90      -99.90      -99.90      -99.90      -99.90      -99.90      -99.90      -99.90      -99.90    
       -99.90      -99.90      -99.90      -99.90      -99.90      -99.90      -99.90      -99.90      -99.90      -99.90    
  12   -99.90      -99.90      -99.90      -99.90      -99.90      -99.90      -99.90      -99.90      -99.90      -99.90    
       -99.90      -99.90      -99.90      -99.90      -99.90      -99.90      -99.90      -99.90      -99.90      -99.90    
       -99.90      -99.90      -99.90      -99.90      -99.90      -99.90      -99.90      -99.90      -99.90      -99.90    
       -99.90      -99.90      -99.90      -99.90      -99.90      -99.90      -99.90      -99.90      -99.90      -99.90    
  13   -99.90      -99.90      -99.90      -99.90      -99.90      -99.90      -99.90      -99.90      -99.90      -99.90    
       -99.90      -99.90      -99.90      -99.90      -99.90      -99.90      -99.90      -99.90      -99.90      -99.90    
       -99.90      -99.90      -99.90      -99.90      -99.90      -99.90      -99.90      -99.90      -99.90      -99.90    
       -99.90      -99.90      -99.90      -99.90      -99.90      -99.90      -99.90      -99.90      -99.90      -99.90    
  14   -99.90      -99.90      -99.90      -99.90      -99.90      -99.90      -99.90      -99.90      -99.90      -99.90    
       -99.90      -99.90      -99.90      -99.90      -99.90      -99.90      -99.90      -99.90      -99.90      -99.90    
       -99.90      -99.90      -99.90      -99.90      -99.90      -99.90      -99.90      -99.90      -99.90      -99.90    
       -99.90      -99.90      -99.90      -99.90      -99.90      -99.90      -99.90      -99.90      -99.90      -99.90    
  15   -99.90      -99.90      -99.90      -99.90      -99.90      -99.90      -99.90      -99.90      -99.90      -99.90    
       -99.90      -99.90      -99.90      -99.90      -99.90      -99.90      -99.90      -99.90      -99.90      -99.90    
       -99.90      -99.90      -99.90      -99.90      -99.90      -99.90      -99.90      -99.90      -99.90      -99.90    
       -99.90      -99.90      -99.90      -99.90      -99.90      -99.90      -99.90      -99.90      -99.90      -99.90    
  16   -99.90      -99.90      -99.90      -99.90      -99.90      -99.90      -99.90      -99.90      -99.90      -99.90    
       -99.90      -99.90      -99.90      -99.90      -99.90      -99.90      -99.90      -99.90      -99.90      -99.90    
       -99.90      -99.90      -99.90      -99.90      -99.90      -99.90      -99.90      -99.90      -99.90      -99.90    
       -99.90      -99.90      -99.90      -99.90      -99.90      -99.90      -99.90      -99.90      -99.90      -99.90    
  17   -99.90      -99.90      -99.90      -99.90      -99.90      -99.90      -99.90      -99.90      -99.90      -99.90    
       -99.90      -99.90      -99.90      -99.90      -99.90      -99.90      -99.90      -99.90      -99.90      -99.90    
       -99.90      -99.90      -99.90      -99.90      -99.90      -99.90      -99.90      -99.90      -99.90      -99.90    
       -99.90      -99.90      -99.90      -99.90      -99.90      -99.90      -99.90      -99.90      -99.90      -99.90    
  18   -99.90      -99.90      -99.90      -99.90      -99.90      -99.90      -99.90      -99.90      -99.90      -99.90    
       -99.90      -99.90      -99.90      -99.90      -99.90      -99.90      -99.90      -99.90      -99.90      -99.90    
       -99.90      -99.90      -99.90      -99.90      -99.90      -99.90      -99.90      -99.90      -99.90      -99.90    
       -99.90      -99.90      -99.90      -99.90      -99.90      -99.90      -99.90      -99.90      -99.90      -99.90    
  19   -99.90      -99.90      -99.90      -99.90      -99.90      -99.90      -99.90      -99.90      -99.90      -99.90    
       -99.90      -99.90      -99.90      -99.90      -99.90      -99.90      -99.90      -99.90      -99.90      -99.90    
       -99.90      -99.90      -99.90      -99.90      -99.90      -99.90      -99.90      -99.90      -99.90      -99.90    
       -99.90      -99.90      -99.90      -99.90      -99.90      -99.90      -99.90      -99.90      -99.90      -99.90    
  20   -99.90      -99.90      -99.90      -99.90      -99.90      -99.90      -99.90      -99.90      -99.90      -99.90    
       -99.90      -99.90      -99.90      -99.90      -99.90      -99.90      -99.90      -99.90      -99.90      -99.90    
       -99.90      -99.90      -99.90      -99.90      -99.90      -99.90      -99.90      -99.90      -99.90      -99.90    
       -99.90      -99.90      -99.90      -99.90      -99.90      -99.90      -99.90      -99.90      -99.90      -99.90    
  21   -99.90      -99.90      -99.90      -99.90      -99.90      -99.90      -99.90      -99.90      -99.90      -99.90    
       -99.90      -99.90      -99.90      -99.90      -99.90      -99.90      -99.90      -99.90      -99.90      -99.90    
       -99.90      -99.90      -99.90      -99.90      -99.90      -99.90      -99.90      -99.90      -99.90      -99.90    
       -99.90      -99.90      -99.90      -99.90      -99.90      -99.90      -99.90      -99.90      -99.90      -99.90    
  22   -99.90      -99.90      -99.90      -99.90      -99.90      -99.90      -99.90      -99.90      -99.90      -99.90    
       -99.90      -99.90      -99.90      -99.90      -99.90      -99.90      -99.90      -99.90      -99.90      -99.90    
       -99.90      -99.90      -99.90      -99.90      -99.90      -99.90      -99.90      -99.90      -99.90      -99.90    
       -99.90      -99.90      -99.90      -99.90      -99.90      -99.90      -99.90      -99.90      -99.90      -99.90    
  23   -99.90      -99.90      -99.90      -99.90      -99.90      -99.90      -99.90      -99.90      -99.90      -99.90    
       -99.90      -99.90      -99.90      -99.90      -99.90      -99.90      -99.90      -99.90      -99.90      -99.90    
       -99.90      -99.90      -99.90      -99.90      -99.90      -99.90      -99.90      -99.90      -99.90      -99.90    
       -99.90      -99.90      -99.90      -99.90      -99.90      -99.90      -99.90      -99.90      -99.90      -99.90    
  24   -99.90      -99.90      -99.90      -99.90      -99.90      -99.90      -99.90      -99.90      -99.90      -99.90    
       -99.90      -99.90      -99.90      -99.90      -99.90      -99.90      -99.90      -99.90      -99.90      -99.90    
       -99.90      -99.90      -99.90      -99.90      -99.90      -99.90      -99.90      -99.90      -99.90      -99.90    
       -99.90      -99.90      -99.90      -99.90      -99.90      -99.90      -99.90      -99.90      -99.90      -99.90    
  25   -99.90      -99.90      -99.90      -99.90      -99.90      -99.90      -99.90      -99.90      -99.90      -99.90    
       -99.90      -99.90      -99.90      -99.90      -99.90      -99.90      -99.90      -99.90      -99.90      -99.90    
       -99.90      -99.90      -99.90      -99.90      -99.90      -99.90      -99.90      -99.90      -99.90      -99.90    
       -99.90      -99.90      -99.90      -99.90      -99.90      -99.90      -99.90      -99.90      -99.90      -99.90    
  26   -99.90      -99.90      -99.90      -99.90      -99.90      -99.90      -99.90      -99.90      -99.90      -99.90    
       -99.90      -99.90      -99.90      -99.90      -99.90      -99.90      -99.90      -99.90      -99.90      -99.90    
       -99.90      -99.90      -99.90      -99.90      -99.90      -99.90      -99.90      -99.90      -99.90      -99.90    
       -99.90      -99.90      -99.90      -99.90      -99.90      -99.90      -99.90      -99.90      -99.90      -99.90    
  27   -99.90      -99.90      -99.90      -99.90      -99.90      -99.90      -99.90      -99.90      -99.90      -99.90    
       -99.90      -99.90      -99.90      -99.90      -99.90      -99.90      -99.90      -99.90      -99.90      -99.90    
       -99.90      -99.90      -99.90      -99.90      -99.90      -99.90      -99.90      -99.90      -99.90      -99.90    
       -99.90      -99.90      -99.90      -99.90      -99.90      -99.90      -99.90      -99.90      -99.90      -99.90    
  28   -99.90      -99.90      -99.90      -99.90      -99.90      -99.90      -99.90      -99.90      -99.90      -99.90    
       -99.90      -99.90      -99.90      -99.90      -99.90      -99.90      -99.90      -99.90      -99.90      -99.90    
       -99.90      -99.90      -99.90      -99.90      -99.90      -99.90      -99.90      -99.90      -99.90      -99.90    
       -99.90      -99.90      -99.90      -99.90      -99.90      -99.90      -99.90      -99.90      -99.90      -99.90    
  29   -99.90      -99.90      -99.90      -99.90      -99.90      -99.90      -99.90      -99.90      -99.90      -99.90    
       -99.90      -99.90      -99.90      -99.90      -99.90      -99.90      -99.90      -99.90      -99.90      -99.90    
       -99.90      -99.90      -99.90      -99.90      -99.90      -99.90      -99.90      -99.90      -99.90      -99.90    
       -99.90      -99.90      -99.90      -99.90      -99.90      -99.90      -99.90      -99.90      -99.90      -99.90    
  30   -99.90      -99.90      -99.90      -99.90      -99.90      -99.90      -99.90      -99.90      -99.90      -99.90    
       -99.90      -99.90      -99.90      -99.90      -99.90      -99.90      -99.90      -99.90      -99.90      -99.90    
       -99.90      -99.90      -99.90      -99.90      -99.90      -99.90      -99.90      -99.90      -99.90      -99.90    
       -99.90      -99.90      -99.90      -99.90      -99.90      -99.90      -99.90      -99.90      -99.90      -99.90    
  31   -99.90      -99.90      -99.90      -99.90      -99.90      -99.90      -99.90      -99.90      -99.90      -99.90    
       -99.90      -99.90      -99.90      -99.90      -99.90      -99.90      -99.90      -99.90      -99.90      -99.90    
       -99.90      -99.90      -99.90      -99.90      -99.90      -99.90      -99.90      -99.90      -99.90      -99.90    
       -99.90      -99.90      -99.90      -99.90      -99.90      -99.90      -99.90      -99.90      -99.90      -99.90    
  32   -99.90      -99.90      -99.90      -99.90      -99.90      -99.90      -99.90      -99.90      -99.90      -99.90    
       -99.90      -99.90      -99.90      -99.90      -99.90      -99.90      -99.90      -99.90      -99.90      -99.90    
       -99.90      -99.90      -99.90      -99.90      -99.90      -99.90      -99.90      -99.90      -99.90      -99.90    
       -99.90      -99.90      -99.90      -99.90      -99.90      -99.90      -99.90      -99.90      -99.90      -99.90    
  33   -99.90      -99.90      -99.90      -99.90      -99.90      -99.90      -99.90      -99.90      -99.90      -99.90    
       -99.90      -99.90      -99.90      -99.90      -99.90      -99.90      -99.90      -99.90      -99.90      -99.90    
       -99.90      -99.90      -99.90      -99.90      -99.90      -99.90      -99.90      -99.90      -99.90      -99.90    
       -99.90      -99.90      -99.90      -99.90      -99.90      -99.90      -99.90      -99.90      -99.90      -99.90    
  34   -99.90      -99.90      -99.90      -99.90      -99.90      -99.90      -99.90      -99.90      -99.90      -99.90    
       -99.90      -99.90      -99.90      -99.90      -99.90      -99.90      -99.90      -99.90      -99.90      -99.90    
       -99.90      -99.90      -99.90      -99.90      -99.90      -99.90      -99.90      -99.90      -99.90      -99.90    
       -99.90      -99.90      -99.90      -99.90      -99.90      -99.90      -99.90      -99.90      -99.90      -99.90    
  35   -99.90      -99.90      -99.90      -99.90      -99.90      -99.90      -99.90      -99.90      -99.90      -99.90    
       -99.90      -99.90      -99.90      -99.90      -99.90      -99.90      -99.90      -99.90      -99.90      -99.90    
       -99.90      -99.90      -99.90      -99.90      -99.90      -99.90      -99.90      -99.90      -99.90      -99.90    
       -99.90      -99.90      -99.90      -99.90      -99.90      -99.90      -99.90      -99.90      -99.90      -99.90    
  36   -99.90      -99.90      -99.90      -99.90      -99.90      -99.90      -99.90      -99.90      -99.90      -99.90    
       -99.90      -99.90      -99.90      -99.90      -99.90      -99.90      -99.90      -99.90      -99.90      -99.90    
       -99.90      -99.90      -99.90      -99.90      -99.90      -99.90      -99.90      -99.90      -99.90      -99.90    
       -99.90      -99.90      -99.90      -99.90      -99.90      -99.90      -99.90      -99.90      -99.90      -99.90    
  37   -99.90      -99.90      -99.90      -99.90      -99.90      -99.90      -99.90      -99.90      -99.90      -99.90    
       -99.90      -99.90      -99.90      -99.90      -99.90      -99.90      -99.90      -99.90      -99.90      -99.90    
       -99.90      -99.90      -99.90      -99.90      -99.90      -99.90      -99.90      -99.90      -99.90      -99.90    
       -99.90      -99.90      -99.90      -99.90      -99.90      -99.90      -99.90      -99.90      -99.90      -99.90    
  38   -99.90      -99.90      -99.90      -99.90      -99.90      -99.90      -99.90      -99.90      -99.90      -99.90    
       -99.90      -99.90      -99.90      -99.90      -99.90      -99.90      -99.90      -99.90      -99.90      -99.90    
       -99.90      -99.90      -99.90      -99.90      -99.90      -99.90      -99.90      -99.90      -99.90      -99.90    
       -99.90      -99.90      -99.90      -99.90      -99.90      -99.90      -99.90      -99.90      -99.90      -99.90    
  39   -99.90      -99.90      -99.90      -99.90      -99.90      -99.90      -99.90      -99.90      -99.90      -99.90    
       -99.90      -99.90      -99.90      -99.90      -99.90      -99.90      -99.90      -99.90      -99.90      -99.90    
       -99.90      -99.90      -99.90      -99.90      -99.90      -99.90      -99.90      -99.90      -99.90      -99.90    
       -99.90      -99.90      -99.90      -99.90      -99.90      -99.90      -99.90      -99.90      -99.90      -99.90    
  40   -99.90      -99.90      -99.90      -99.90      -99.90      -99.90      -99.90      -99.90      -99.90      -99.90    
       -99.90      -99.90      -99.90      -99.90      -99.90      -99.90      -99.90      -99.90      -99.90      -99.90    
       -99.90      -99.90      -99.90      -99.90      -99.90      -99.90      -99.90      -99.90      -99.90      -99.90    
       -99.90      -99.90      -99.90      -99.90      -99.90      -99.90      -99.90      -99.90      -99.90      -99.90    
1
              HEAD IN LAYER   3 AT END OF TIME STEP  10 IN STRESS PERIOD    1
  ---------------------------------------------------------------------------

            1           2           3           4           5           6           7           8           9          10
           11          12          13          14          15          16          17          18          19          20
           21          22          23          24          25          26          27          28          29          30
           31          32          33          34          35          36          37          38          39          40
 ........................................................................................................................
   1   -99.90      -99.90      -99.90      -99.90      -99.90      -99.90      -99.90      -99.90      -99.90      -99.90    
       -99.90      -99.90      -99.90      -99.90      -99.90      -99.90      -99.90      -99.90      -99.90      -99.90    
       -99.90      -99.90      -99.90      -99.90      -99.90      -99.90      -99.90      -99.90      -99.90      -99.90    
       -99.90      -99.90      -99.90      -99.90      -99.90      -99.90      -99.90      -99.90      -99.90      -99.90    
   2   -99.90      -99.90      -99.90      -99.90      -99.90      -99.90      -99.90      -99.90      -99.90      -99.90    
       -99.90      -99.90      -99.90      -99.90      -99.90      -99.90      -99.90      -99.90      -99.90      -99.90    
       -99.90      -99.90      -99.90      -99.90      -99.90      -99.90      -99.90      -99.90      -99.90      -99.90    
       -99.90      -99.90      -99.90      -99.90      -99.90      -99.90      -99.90      -99.90      -99.90      -99.90    
   3   -99.90      -99.90      -99.90      -99.90      -99.90      -99.90      -99.90      -99.90      -99.90      -99.90    
       -99.90      -99.90      -99.90      -99.90      -99.90      -99.90      -99.90      -99.90      -99.90      -99.90    
       -99.90      -99.90      -99.90      -99.90      -99.90      -99.90      -99.90      -99.90      -99.90      -99.90    
       -99.90      -99.90      -99.90      -99.90      -99.90      -99.90      -99.90      -99.90      -99.90      -99.90    
   4   -99.90      -99.90      -99.90      -99.90      -99.90      -99.90      -99.90      -99.90      -99.90      -99.90    
       -99.90      -99.90      -99.90      -99.90      -99.90      -99.90      -99.90      -99.90      -99.90      -99.90    
       -99.90      -99.90      -99.90      -99.90      -99.90      -99.90      -99.90      -99.90      -99.90      -99.90    
       -99.90      -99.90      -99.90      -99.90      -99.90      -99.90      -99.90      -99.90      -99.90      -99.90    
   5   -99.90      -99.90      -99.90      -99.90      -99.90      -99.90      -99.90      -99.90      -99.90      -99.90    
       -99.90      -99.90      -99.90      -99.90      -99.90      -99.90      -99.90      -99.90      -99.90      -99.90    
       -99.90      -99.90      -99.90      -99.90      -99.90      -99.90      -99.90      -99.90      -99.90      -99.90    
       -99.90      -99.90      -99.90      -99.90      -99.90      -99.90      -99.90      -99.90      -99.90      -99.90    
   6   -99.90      -99.90      -99.90      -99.90      -99.90      -99.90      -99.90      -99.90      -99.90      -99.90    
       -99.90      -99.90      -99.90      -99.90      -99.90      -99.90      -99.90      -99.90      -99.90      -99.90    
       -99.90      -99.90      -99.90      -99.90      -99.90      -99.90      -99.90      -99.90      -99.90      -99.90    
       -99.90      -99.90      -99.90      -99.90      -99.90      -99.90      -99.90      -99.90      -99.90      -99.90    
   7   -99.90      -99.90      -99.90      -99.90      -99.90      -99.90      -99.90      -99.90      -99.90      -99.90    
       -99.90      -99.90      -99.90      -99.90      -99.90      -99.90      -99.90      -99.90      -99.90      -99.90    
       -99.90      -99.90      -99.90      -99.90      -99.90      -99.90      -99.90      -99.90      -99.90      -99.90    
       -99.90      -99.90      -99.90      -99.90      -99.90      -99.90      -99.90      -99.90      -99.90      -99.90    
   8   -99.90      -99.90      -99.90      -99.90      -99.90      -99.90      -99.90      -99.90      -99.90      -99.90    
       -99.90      -99.90      -99.90      -99.90      -99.90      -99.90      -99.90      -99.90      -99.90      -99.90    
       -99.90      -99.90      -99.90      -99.90      -99.90      -99.90      -99.90      -99.90      -99.90      -99.90    
       -99.90      -99.90      -99.90      -99.90      -99.90      -99.90      -99.90      -99.90      -99.90      -99.90    
   9   -99.90      -99.90      -99.90      -99.90      -99.90      -99.90      -99.90      -99.90      -99.90      -99.90    
       -99.90      -99.90      -99.90      -99.90      -99.90      -99.90      -99.90      -99.90      -99.90      -99.90    
       -99.90      -99.90      -99.90      -99.90      -99.90      -99.90      -99.90      -99.90      -99.90      -99.90    
       -99.90      -99.90      -99.90      -99.90      -99.90      -99.90      -99.90      -99.90      -99.90      -99.90    
  10   -99.90      -99.90      -99.90      -99.90      -99.90      -99.90      -99.90      -99.90      -99.90      -99.90    
       -99.90      -99.90      -99.90      -99.90      -99.90      -99.90      -99.90      -99.90      -99.90      -99.90    
       -99.90      -99.90      -99.90      -99.90      -99.90      -99.90      -99.90      -99.90      -99.90      -99.90    
       -99.90      -99.90      -99.90      -99.90      -99.90      -99.90      -99.90      -99.90      -99.90      -99.90    
  11   -99.90      -99.90      -99.90      -99.90      -99.90      -99.90      -99.90      -99.90      -99.90      -99.90    
       -99.90      -99.90      -99.90      -99.90      -99.90      -99.90      -99.90      -99.90      -99.90      -99.90    
       -99.90      -99.90      -99.90      -99.90      -99.90      -99.90      -99.90      -99.90      -99.90      -99.90    
       -99.90      -99.90      -99.90      -99.90      -99.90      -99.90      -99.90      -99.90      -99.90      -99.90    
  12   -99.90      -99.90      -99.90      -99.90      -99.90      -99.90      -99.90      -99.90      -99.90      -99.90    
       -99.90      -99.90      -99.90      -99.90      -99.90      -99.90      -99.90      -99.90      -99.90      -99.90    
       -99.90      -99.90      -99.90      -99.90      -99.90      -99.90      -99.90      -99.90      -99.90      -99.90    
       -99.90      -99.90      -99.90      -99.90      -99.90      -99.90      -99.90      -99.90      -99.90      -99.90    
  13   -99.90      -99.90      -99.90      -99.90      -99.90      -99.90      -99.90      -99.90      -99.90      -99.90    
       -99.90      -99.90      -99.90      -99.90      -99.90      -99.90      -99.90      -99.90      -99.90      -99.90    
       -99.90      -99.90      -99.90      -99.90      -99.90      -99.90      -99.90      -99.90      -99.90      -99.90    
       -99.90      -99.90      -99.90      -99.90      -99.90      -99.90      -99.90      -99.90      -99.90      -99.90    
  14   -99.90      -99.90      -99.90      -99.90      -99.90      -99.90      -99.90      -99.90      -99.90      -99.90    
       -99.90      -99.90      -99.90      -99.90      -99.90      -99.90      -99.90      -99.90      -99.90      -99.90    
       -99.90      -99.90      -99.90      -99.90      -99.90      -99.90      -99.90      -99.90      -99.90      -99.90    
       -99.90      -99.90      -99.90      -99.90      -99.90      -99.90      -99.90      -99.90      -99.90      -99.90    
  15   -99.90      -99.90      -99.90      -99.90      -99.90      -99.90      -99.90      -99.90      -99.90      -99.90    
       -99.90      -99.90      -99.90      -99.90      -99.90      -99.90      -99.90      -99.90      -99.90      -99.90    
       -99.90      -99.90      -99.90      -99.90      -99.90      -99.90      -99.90      -99.90      -99.90      -99.90    
       -99.90      -99.90      -99.90      -99.90      -99.90      -99.90      -99.90      -99.90      -99.90      -99.90    
  16   -99.90      -99.90      -99.90      -99.90      -99.90      -99.90      -99.90      -99.90      -99.90      -99.90    
       -99.90      -99.90      -99.90      -99.90      -99.90      -99.90      -99.90      -99.90      -99.90      -99.90    
       -99.90      -99.90      -99.90      -99.90      -99.90      -99.90      -99.90      -99.90      -99.90      -99.90    
       -99.90      -99.90      -99.90      -99.90      -99.90      -99.90      -99.90      -99.90      -99.90      -99.90    
  17   -99.90      -99.90      -99.90      -99.90      -99.90      -99.90      -99.90      -99.90      -99.90      -99.90    
       -99.90      -99.90      -99.90      -99.90      -99.90      -99.90      -99.90      -99.90      -99.90      -99.90    
       -99.90      -99.90      -99.90      -99.90      -99.90      -99.90      -99.90      -99.90      -99.90      -99.90    
       -99.90      -99.90      -99.90      -99.90      -99.90      -99.90      -99.90      -99.90      -99.90      -99.90    
  18   -99.90      -99.90      -99.90      -99.90      -99.90      -99.90      -99.90      -99.90      -99.90      -99.90    
       -99.90      -99.90      -99.90      -99.90      -99.90      -99.90      -99.90      -99.90      -99.90      -99.90    
       -99.90      -99.90      -99.90      -99.90      -99.90      -99.90      -99.90      -99.90      -99.90      -99.90    
       -99.90      -99.90      -99.90      -99.90      -99.90      -99.90      -99.90      -99.90      -99.90      -99.90    
  19   -99.90      -99.90      -99.90      -99.90      -99.90      -99.90      -99.90      -99.90      -99.90      -99.90    
       -99.90      -99.90      -99.90      -99.90      -99.90      -99.90      -99.90      -99.90      -99.90      -99.90    
       -99.90      -99.90      -99.90      -99.90      -99.90      -99.90      -99.90      -99.90      -99.90      -99.90    
       -99.90      -99.90      -99.90      -99.90      -99.90      -99.90      -99.90      -99.90      -99.90      -99.90    
  20   -99.90      -99.90      -99.90      -99.90      -99.90      -99.90      -99.90      -99.90      -99.90      -99.90    
       -99.90      -99.90      -99.90      -99.90      -99.90      -99.90      -99.90      -99.90      -99.90      -99.90    
       -99.90      -99.90      -99.90      -99.90      -99.90      -99.90      -99.90      -99.90      -99.90      -99.90    
       -99.90      -99.90      -99.90      -99.90      -99.90      -99.90      -99.90      -99.90      -99.90      -99.90    
  21   -99.90      -99.90      -99.90      -99.90      -99.90      -99.90      -99.90      -99.90      -99.90      -99.90    
       -99.90      -99.90      -99.90      -99.90      -99.90      -99.90      -99.90      -99.90      -99.90      -99.90    
       -99.90      -99.90      -99.90      -99.90      -99.90      -99.90      -99.90      -99.90      -99.90      -99.90    
       -99.90      -99.90      -99.90      -99.90      -99.90      -99.90      -99.90      -99.90      -99.90      -99.90    
  22   -99.90      -99.90      -99.90      -99.90      -99.90      -99.90      -99.90      -99.90      -99.90      -99.90    
       -99.90      -99.90      -99.90      -99.90      -99.90      -99.90      -99.90      -99.90      -99.90      -99.90    
       -99.90      -99.90      -99.90      -99.90      -99.90      -99.90      -99.90      -99.90      -99.90      -99.90    
       -99.90      -99.90      -99.90      -99.90      -99.90      -99.90      -99.90      -99.90      -99.90      -99.90    
  23   -99.90      -99.90      -99.90      -99.90      -99.90      -99.90      -99.90      -99.90      -99.90      -99.90    
       -99.90      -99.90      -99.90      -99.90      -99.90      -99.90      -99.90      -99.90      -99.90      -99.90    
       -99.90      -99.90      -99.90      -99.90      -99.90      -99.90      -99.90      -99.90      -99.90      -99.90    
       -99.90      -99.90      -99.90      -99.90      -99.90      -99.90      -99.90      -99.90      -99.90      -99.90    
  24   -99.90      -99.90      -99.90      -99.90      -99.90      -99.90      -99.90      -99.90      -99.90      -99.90    
       -99.90      -99.90      -99.90      -99.90      -99.90      -99.90      -99.90      -99.90      -99.90      -99.90    
       -99.90      -99.90      -99.90      -99.90      -99.90      -99.90      -99.90      -99.90      -99.90      -99.90    
       -99.90      -99.90      -99.90      -99.90      -99.90      -99.90      -99.90      -99.90      -99.90      -99.90    
  25   -99.90      -99.90      -99.90      -99.90      -99.90      -99.90      -99.90      -99.90      -99.90      -99.90    
       -99.90      -99.90      -99.90      -99.90      -99.90      -99.90      -99.90      -99.90      -99.90      -99.90    
       -99.90      -99.90      -99.90      -99.90      -99.90      -99.90      -99.90      -99.90      -99.90      -99.90    
       -99.90      -99.90      -99.90      -99.90      -99.90      -99.90      -99.90      -99.90      -99.90      -99.90    
  26   -99.90      -99.90      -99.90      -99.90      -99.90      -99.90      -99.90      -99.90      -99.90      -99.90    
       -99.90      -99.90      -99.90      -99.90      -99.90      -99.90      -99.90      -99.90      -99.90      -99.90    
       -99.90      -99.90      -99.90      -99.90      -99.90      -99.90      -99.90      -99.90      -99.90      -99.90    
       -99.90      -99.90      -99.90      -99.90      -99.90      -99.90      -99.90      -99.90      -99.90      -99.90    
  27   -99.90      -99.90      -99.90      -99.90      -99.90      -99.90      -99.90      -99.90      -99.90      -99.90    
       -99.90      -99.90      -99.90      -99.90      -99.90      -99.90      -99.90      -99.90      -99.90      -99.90    
       -99.90      -99.90      -99.90      -99.90      -99.90      -99.90      -99.90      -99.90      -99.90      -99.90    
       -99.90      -99.90      -99.90      -99.90      -99.90      -99.90      -99.90      -99.90      -99.90      -99.90    
  28   -99.90      -99.90      -99.90      -99.90      -99.90      -99.90      -99.90      -99.90      -99.90      -99.90    
       -99.90      -99.90      -99.90      -99.90      -99.90      -99.90      -99.90      -99.90      -99.90      -99.90    
       -99.90      -99.90      -99.90      -99.90      -99.90      -99.90      -99.90      -99.90      -99.90      -99.90    
       -99.90      -99.90      -99.90      -99.90      -99.90      -99.90      -99.90      -99.90      -99.90      -99.90    
  29   -99.90      -99.90      -99.90      -99.90      -99.90      -99.90      -99.90      -99.90      -99.90      -99.90    
       -99.90      -99.90      -99.90      -99.90      -99.90      -99.90      -99.90      -99.90      -99.90      -99.90    
       -99.90      -99.90      -99.90      -99.90      -99.90      -99.90      -99.90      -99.90      -99.90      -99.90    
       -99.90      -99.90      -99.90      -99.90      -99.90      -99.90      -99.90      -99.90      -99.90      -99.90    
  30   -99.90      -99.90      -99.90      -99.90      -99.90      -99.90      -99.90      -99.90      -99.90      -99.90    
       -99.90      -99.90      -99.90      -99.90      -99.90      -99.90      -99.90      -99.90      -99.90      -99.90    
       -99.90      -99.90      -99.90      -99.90      -99.90      -99.90      -99.90      -99.90      -99.90      -99.90    
       -99.90      -99.90      -99.90      -99.90      -99.90      -99.90      -99.90      -99.90      -99.90      -99.90    
  31   -99.90      -99.90      -99.90      -99.90      -99.90      -99.90      -99.90      -99.90      -99.90      -99.90    
       -99.90      -99.90      -99.90      -99.90      -99.90      -99.90      -99.90      -99.90      -99.90      -99.90    
       -99.90      -99.90      -99.90      -99.90      -99.90      -99.90      -99.90      -99.90      -99.90      -99.90    
       -99.90      -99.90      -99.90      -99.90      -99.90      -99.90      -99.90      -99.90      -99.90      -99.90    
  32   -99.90      -99.90      -99.90      -99.90      -99.90      -99.90      -99.90      -99.90      -99.90      -99.90    
       -99.90      -99.90      -99.90      -99.90      -99.90      -99.90      -99.90      -99.90      -99.90      -99.90    
       -99.90      -99.90      -99.90      -99.90      -99.90      -99.90      -99.90      -99.90      -99.90      -99.90    
       -99.90      -99.90      -99.90      -99.90      -99.90      -99.90      -99.90      -99.90      -99.90      -99.90    
  33   -99.90      -99.90      -99.90      -99.90      -99.90      -99.90      -99.90      -99.90      -99.90      -99.90    
       -99.90      -99.90      -99.90      -99.90      -99.90      -99.90      -99.90      -99.90      -99.90      -99.90    
       -99.90      -99.90      -99.90      -99.90      -99.90      -99.90      -99.90      -99.90      -99.90      -99.90    
       -99.90      -99.90      -99.90      -99.90      -99.90      -99.90      -99.90      -99.90      -99.90      -99.90    
  34   -99.90      -99.90      -99.90      -99.90      -99.90      -99.90      -99.90      -99.90      -99.90      -99.90    
       -99.90      -99.90      -99.90      -99.90      -99.90      -99.90      -99.90      -99.90      -99.90      -99.90    
       -99.90      -99.90      -99.90      -99.90      -99.90      -99.90      -99.90      -99.90      -99.90      -99.90    
       -99.90      -99.90      -99.90      -99.90      -99.90      -99.90      -99.90      -99.90      -99.90      -99.90    
  35   -99.90      -99.90      -99.90      -99.90      -99.90      -99.90      -99.90      -99.90      -99.90      -99.90    
       -99.90      -99.90      -99.90      -99.90      -99.90      -99.90      -99.90      -99.90      -99.90      -99.90    
       -99.90      -99.90      -99.90      -99.90      -99.90      -99.90      -99.90      -99.90      -99.90      -99.90    
       -99.90      -99.90      -99.90      -99.90      -99.90      -99.90      -99.90      -99.90      -99.90      -99.90    
  36   -99.90      -99.90      -99.90      -99.90      -99.90      -99.90      -99.90      -99.90      -99.90      -99.90    
       -99.90      -99.90      -99.90      -99.90      -99.90      -99.90      -99.90      -99.90      -99.90      -99.90    
       -99.90      -99.90      -99.90      -99.90      -99.90      -99.90      -99.90      -99.90      -99.90      -99.90    
       -99.90      -99.90      -99.90      -99.90      -99.90      -99.90      -99.90      -99.90      -99.90      -99.90    
  37   -99.90      -99.90      -99.90      -99.90      -99.90      -99.90      -99.90      -99.90      -99.90      -99.90    
       -99.90      -99.90      -99.90      -99.90      -99.90      -99.90      -99.90      -99.90      -99.90      -99.90    
       -99.90      -99.90      -99.90      -99.90      -99.90      -99.90      -99.90      -99.90      -99.90      -99.90    
       -99.90      -99.90      -99.90      -99.90      -99.90      -99.90      -99.90      -99.90      -99.90      -99.90    
  38   -99.90      -99.90      -99.90      -99.90      -99.90      -99.90      -99.90      -99.90      -99.90      -99.90    
       -99.90      -99.90      -99.90      -99.90      -99.90      -99.90      -99.90      -99.90      -99.90      -99.90    
       -99.90      -99.90      -99.90      -99.90      -99.90      -99.90      -99.90      -99.90      -99.90      -99.90    
       -99.90      -99.90      -99.90      -99.90      -99.90      -99.90      -99.90      -99.90      -99.90      -99.90    
  39   -99.90      -99.90      -99.90      -99.90      -99.90      -99.90      -99.90      -99.90      -99.90      -99.90    
       -99.90      -99.90      -99.90      -99.90      -99.90      -99.90      -99.90      -99.90      -99.90      -99.90    
       -99.90      -99.90      -99.90      -99.90      -99.90      -99.90      -99.90      -99.90      -99.90      -99.90    
       -99.90      -99.90      -99.90      -99.90      -99.90      -99.90      -99.90      -99.90      -99.90      -99.90    
  40   -99.90      -99.90      -99.90      -99.90      -99.90      -99.90      -99.90      -99.90      -99.90      -99.90    
       -99.90      -99.90      -99.90      -99.90      -99.90      -99.90      -99.90      -99.90      -99.90      -99.90    
       -99.90      -99.90      -99.90      -99.90      -99.90      -99.90      -99.90      -99.90      -99.90      -99.90    
       -99.90      -99.90      -99.90      -99.90      -99.90      -99.90      -99.90      -99.90      -99.90      -99.90    
1
              HEAD IN LAYER   4 AT END OF TIME STEP  10 IN STRESS PERIOD    1
  ---------------------------------------------------------------------------

            1           2           3           4           5           6           7           8           9          10
           11          12          13          14          15          16          17          18          19          20
           21          22          23          24          25          26          27          28          29          30
           31          32          33          34          35          36          37          38          39          40
 ........................................................................................................................
   1   -99.90      -99.90      -99.90      -99.90      -99.90      -99.90      -99.90      -99.90      -99.90      -99.90    
       -99.90      -99.90      -99.90      -99.90      -99.90      -99.90      -99.90      -99.90      -99.90      -99.90    
       -99.90      -99.90      -99.90      -99.90      -99.90      -99.90      -99.90      -99.90      -99.90      -99.90    
       -99.90      -99.90      -99.90      -99.90      -99.90      -99.90      -99.90      -99.90      -99.90      -99.90    
   2   -99.90      -99.90      -99.90      -99.90      -99.90      -99.90      -99.90      -99.90      -99.90      -99.90    
       -99.90      -99.90      -99.90      -99.90      -99.90      -99.90      -99.90      -99.90      -99.90      -99.90    
       -99.90      -99.90      -99.90      -99.90      -99.90      -99.90      -99.90      -99.90      -99.90      -99.90    
       -99.90      -99.90      -99.90      -99.90      -99.90      -99.90      -99.90      -99.90      -99.90      -99.90    
   3   -99.90      -99.90      -99.90      -99.90      -99.90      -99.90      -99.90      -99.90      -99.90      -99.90    
       -99.90      -99.90      -99.90      -99.90      -99.90      -99.90      -99.90      -99.90      -99.90      -99.90    
       -99.90      -99.90      -99.90      -99.90      -99.90      -99.90      -99.90      -99.90      -99.90      -99.90    
       -99.90      -99.90      -99.90      -99.90      -99.90      -99.90      -99.90      -99.90      -99.90      -99.90    
   4   -99.90      -99.90      -99.90      -99.90      -99.90      -99.90      -99.90      -99.90      -99.90      -99.90    
       -99.90      -99.90      -99.90      -99.90      -99.90      -99.90      -99.90      -99.90      -99.90      -99.90    
       -99.90      -99.90      -99.90      -99.90      -99.90      -99.90      -99.90      -99.90      -99.90      -99.90    
       -99.90      -99.90      -99.90      -99.90      -99.90      -99.90      -99.90      -99.90      -99.90      -99.90    
   5   -99.90      -99.90      -99.90      -99.90      -99.90      -99.90      -99.90      -99.90      -99.90      -99.90    
       -99.90      -99.90      -99.90      -99.90      -99.90      -99.90      -99.90      -99.90      -99.90      -99.90    
       -99.90      -99.90      -99.90      -99.90      -99.90      -99.90      -99.90      -99.90      -99.90      -99.90    
       -99.90      -99.90      -99.90      -99.90      -99.90      -99.90      -99.90      -99.90      -99.90      -99.90    
   6   -99.90      -99.90      -99.90      -99.90      -99.90      -99.90      -99.90      -99.90      -99.90      -99.90    
       -99.90      -99.90      -99.90      -99.90      -99.90      -99.90      -99.90      -99.90      -99.90      -99.90    
       -99.90      -99.90      -99.90      -99.90      -99.90      -99.90      -99.90      -99.90      -99.90      -99.90    
       -99.90      -99.90      -99.90      -99.90      -99.90      -99.90      -99.90      -99.90      -99.90      -99.90    
   7   -99.90      -99.90      -99.90      -99.90      -99.90      -99.90      -99.90      -99.90      -99.90      -99.90    
       -99.90      -99.90      -99.90      -99.90      -99.90      -99.90      -99.90      -99.90      -99.90      -99.90    
       -99.90      -99.90      -99.90      -99.90      -99.90      -99.90      -99.90      -99.90      -99.90      -99.90    
       -99.90      -99.90      -99.90      -99.90      -99.90      -99.90      -99.90      -99.90      -99.90      -99.90    
   8   -99.90      -99.90      -99.90      -99.90      -99.90      -99.90      -99.90      -99.90      -99.90      -99.90    
       -99.90      -99.90      -99.90      -99.90      -99.90      -99.90      -99.90      -99.90      -99.90      -99.90    
       -99.90      -99.90      -99.90      -99.90      -99.90      -99.90      -99.90      -99.90      -99.90      -99.90    
       -99.90      -99.90      -99.90      -99.90      -99.90      -99.90      -99.90      -99.90      -99.90      -99.90    
   9   -99.90      -99.90      -99.90      -99.90      -99.90      -99.90      -99.90      -99.90      -99.90      -99.90    
       -99.90      -99.90      -99.90      -99.90      -99.90      -99.90      -99.90      -99.90      -99.90      -99.90    
       -99.90      -99.90      -99.90      -99.90      -99.90      -99.90      -99.90      -99.90      -99.90      -99.90    
       -99.90      -99.90      -99.90      -99.90      -99.90      -99.90      -99.90      -99.90      -99.90      -99.90    
  10   -99.90      -99.90      -99.90      -99.90      -99.90      -99.90      -99.90      -99.90      -99.90      -99.90    
       -99.90      -99.90      -99.90      -99.90      -99.90      -99.90      -99.90      -99.90      -99.90      -99.90    
       -99.90      -99.90      -99.90      -99.90      -99.90      -99.90      -99.90      -99.90      -99.90      -99.90    
       -99.90      -99.90      -99.90      -99.90      -99.90      -99.90      -99.90      -99.90      -99.90      -99.90    
  11   -99.90      -99.90      -99.90      -99.90      -99.90      -99.90      -99.90      -99.90      -99.90      -99.90    
       -99.90      -99.90      -99.90      -99.90      -99.90      -99.90      -99.90      -99.90      -99.90      -99.90    
       -99.90      -99.90      -99.90      -99.90      -99.90      -99.90      -99.90      -99.90      -99.90      -99.90    
       -99.90      -99.90      -99.90      -99.90      -99.90      -99.90      -99.90      -99.90      -99.90      -99.90    
  12   -99.90      -99.90      -99.90      -99.90      -99.90      -99.90      -99.90      -99.90      -99.90      -99.90    
       -99.90      -99.90      -99.90      -99.90      -99.90      -99.90      -99.90      -99.90      -99.90      -99.90    
       -99.90      -99.90      -99.90      -99.90      -99.90      -99.90      -99.90      -99.90      -99.90      -99.90    
       -99.90      -99.90      -99.90      -99.90      -99.90      -99.90      -99.90      -99.90      -99.90      -99.90    
  13   -99.90      -99.90      -99.90      -99.90      -99.90      -99.90      -99.90      -99.90      -99.90      -99.90    
       -99.90      -99.90      -99.90      -99.90      -99.90      -99.90      -99.90      -99.90      -99.90      -99.90    
       -99.90      -99.90      -99.90      -99.90      -99.90      -99.90      -99.90      -99.90      -99.90      -99.90    
       -99.90      -99.90      -99.90      -99.90      -99.90      -99.90      -99.90      -99.90      -99.90      -99.90    
  14   -99.90      -99.90      -99.90      -99.90      -99.90      -99.90      -99.90      -99.90      -99.90      -99.90    
       -99.90      -99.90      -99.90      -99.90      -99.90      -99.90      -99.90      -99.90      -99.90      -99.90    
       -99.90      -99.90      -99.90      -99.90      -99.90      -99.90      -99.90      -99.90      -99.90      -99.90    
       -99.90      -99.90      -99.90      -99.90      -99.90      -99.90      -99.90      -99.90      -99.90      -99.90    
  15   -99.90      -99.90      -99.90      -99.90      -99.90      -99.90      -99.90      -99.90      -99.90      -99.90    
       -99.90      -99.90      -99.90      -99.90      -99.90      -99.90      -99.90      -99.90      -99.90      -99.90    
       -99.90      -99.90      -99.90      -99.90      -99.90      -99.90      -99.90      -99.90      -99.90      -99.90    
       -99.90      -99.90      -99.90      -99.90      -99.90      -99.90      -99.90      -99.90      -99.90      -99.90    
  16   -99.90      -99.90      -99.90      -99.90      -99.90      -99.90      -99.90      -99.90      -99.90      -99.90    
       -99.90      -99.90      -99.90      -99.90      -99.90      -99.90      -99.90      -99.90      -99.90      -99.90    
       -99.90      -99.90      -99.90      -99.90      -99.90      -99.90      -99.90      -99.90      -99.90      -99.90    
       -99.90      -99.90      -99.90      -99.90      -99.90      -99.90      -99.90      -99.90      -99.90      -99.90    
  17   -99.90      -99.90      -99.90      -99.90      -99.90      -99.90      -99.90      -99.90      -99.90      -99.90    
       -99.90      -99.90      -99.90      -99.90      -99.90      -99.90      -99.90      -99.90      -99.90      -99.90    
       -99.90      -99.90      -99.90      -99.90      -99.90      -99.90      -99.90      -99.90      -99.90      -99.90    
       -99.90      -99.90      -99.90      -99.90      -99.90      -99.90      -99.90      -99.90      -99.90      -99.90    
  18   -99.90      -99.90      -99.90      -99.90      -99.90      -99.90      -99.90      -99.90      -99.90      -99.90    
       -99.90      -99.90      -99.90      -99.90      -99.90      -99.90      -99.90      -99.90      -99.90      -99.90    
       -99.90      -99.90      -99.90      -99.90      -99.90      -99.90      -99.90      -99.90      -99.90      -99.90    
       -99.90      -99.90      -99.90      -99.90      -99.90      -99.90      -99.90      -99.90      -99.90      -99.90    
  19   -99.90      -99.90      -99.90      -99.90      -99.90      -99.90      -99.90      -99.90      -99.90      -99.90    
       -99.90      -99.90      -99.90      -99.90      -99.90      -99.90      -99.90      -99.90      -99.90      -99.90    
       -99.90      -99.90      -99.90      -99.90      -99.90      -99.90      -99.90      -99.90      -99.90      -99.90    
       -99.90      -99.90      -99.90      -99.90      -99.90      -99.90      -99.90      -99.90      -99.90      -99.90    
  20   -99.90      -99.90      -99.90      -99.90      -99.90      -99.90      -99.90      -99.90      -99.90      -99.90    
       -99.90      -99.90      -99.90      -99.90      -99.90      -99.90      -99.90      -99.90      -99.90      -99.90    
       -99.90      -99.90      -99.90      -99.90      -99.90      -99.90      -99.90      -99.90      -99.90      -99.90    
       -99.90      -99.90      -99.90      -99.90      -99.90      -99.90      -99.90      -99.90      -99.90      -99.90    
  21   -99.90      -99.90      -99.90      -99.90      -99.90      -99.90      -99.90      -99.90      -99.90      -99.90    
       -99.90      -99.90      -99.90      -99.90      -99.90      -99.90      -99.90      -99.90      -99.90      -99.90    
       -99.90      -99.90      -99.90      -99.90      -99.90      -99.90      -99.90      -99.90      -99.90      -99.90    
       -99.90      -99.90      -99.90      -99.90      -99.90      -99.90      -99.90      -99.90      -99.90      -99.90    
  22   -99.90      -99.90      -99.90      -99.90      -99.90      -99.90      -99.90      -99.90      -99.90      -99.90    
       -99.90      -99.90      -99.90      -99.90      -99.90      -99.90      -99.90      -99.90      -99.90      -99.90    
       -99.90      -99.90      -99.90      -99.90      -99.90      -99.90      -99.90      -99.90      -99.90      -99.90    
       -99.90      -99.90      -99.90      -99.90      -99.90      -99.90      -99.90      -99.90      -99.90      -99.90    
  23   -99.90      -99.90      -99.90      -99.90      -99.90      -99.90      -99.90      -99.90      -99.90      -99.90    
       -99.90      -99.90      -99.90      -99.90      -99.90      -99.90      -99.90      -99.90      -99.90      -99.90    
       -99.90      -99.90      -99.90      -99.90      -99.90      -99.90      -99.90      -99.90      -99.90      -99.90    
       -99.90      -99.90      -99.90      -99.90      -99.90      -99.90      -99.90      -99.90      -99.90      -99.90    
  24   -99.90      -99.90      -99.90      -99.90      -99.90      -99.90      -99.90      -99.90      -99.90      -99.90    
       -99.90      -99.90      -99.90      -99.90      -99.90      -99.90      -99.90      -99.90      -99.90      -99.90    
       -99.90      -99.90      -99.90      -99.90      -99.90      -99.90      -99.90      -99.90      -99.90      -99.90    
       -99.90      -99.90      -99.90      -99.90      -99.90      -99.90      -99.90      -99.90      -99.90      -99.90    
  25   -99.90      -99.90      -99.90      -99.90      -99.90      -99.90      -99.90      -99.90      -99.90      -99.90    
       -99.90      -99.90      -99.90      -99.90      -99.90      -99.90      -99.90      -99.90      -99.90      -99.90    
       -99.90      -99.90      -99.90      -99.90      -99.90      -99.90      -99.90      -99.90      -99.90      -99.90    
       -99.90      -99.90      -99.90      -99.90      -99.90      -99.90      -99.90      -99.90      -99.90      -99.90    
  26   -99.90      -99.90      -99.90      -99.90      -99.90      -99.90      -99.90      -99.90      -99.90      -99.90    
       -99.90      -99.90      -99.90      -99.90      -99.90      -99.90      -99.90      -99.90      -99.90      -99.90    
       -99.90      -99.90      -99.90      -99.90      -99.90      -99.90      -99.90      -99.90      -99.90      -99.90    
       -99.90      -99.90      -99.90      -99.90      -99.90      -99.90      -99.90      -99.90      -99.90      -99.90    
  27   -99.90      -99.90      -99.90      -99.90      -99.90      -99.90      -99.90      -99.90      -99.90      -99.90    
       -99.90      -99.90      -99.90      -99.90      -99.90      -99.90      -99.90      -99.90      -99.90      -99.90    
       -99.90      -99.90      -99.90      -99.90      -99.90      -99.90      -99.90      -99.90      -99.90      -99.90    
       -99.90      -99.90      -99.90      -99.90      -99.90      -99.90      -99.90      -99.90      -99.90      -99.90    
  28   -99.90      -99.90      -99.90      -99.90      -99.90      -99.90      -99.90      -99.90      -99.90      -99.90    
       -99.90      -99.90      -99.90      -99.90      -99.90      -99.90      -99.90      -99.90      -99.90      -99.90    
       -99.90      -99.90      -99.90      -99.90      -99.90      -99.90      -99.90      -99.90      -99.90      -99.90    
       -99.90      -99.90      -99.90      -99.90      -99.90      -99.90      -99.90      -99.90      -99.90      -99.90    
  29   -99.90      -99.90      -99.90      -99.90      -99.90      -99.90      -99.90      -99.90      -99.90      -99.90    
       -99.90      -99.90      -99.90      -99.90      -99.90      -99.90      -99.90      -99.90      -99.90      -99.90    
       -99.90      -99.90      -99.90      -99.90      -99.90      -99.90      -99.90      -99.90      -99.90      -99.90    
       -99.90      -99.90      -99.90      -99.90      -99.90      -99.90      -99.90      -99.90      -99.90      -99.90    
  30   -99.90      -99.90      -99.90      -99.90      -99.90      -99.90      -99.90      -99.90      -99.90      -99.90    
       -99.90      -99.90      -99.90      -99.90      -99.90      -99.90      -99.90      -99.90      -99.90      -99.90    
       -99.90      -99.90      -99.90      -99.90      -99.90      -99.90      -99.90      -99.90      -99.90      -99.90    
       -99.90      -99.90      -99.90      -99.90      -99.90      -99.90      -99.90      -99.90      -99.90      -99.90    
  31   -99.90      -99.90      -99.90      -99.90      -99.90      -99.90      -99.90      -99.90      -99.90      -99.90    
       -99.90      -99.90      -99.90      -99.90      -99.90      -99.90      -99.90      -99.90      -99.90      -99.90    
       -99.90      -99.90      -99.90      -99.90      -99.90      -99.90      -99.90      -99.90      -99.90      -99.90    
       -99.90      -99.90      -99.90      -99.90      -99.90      -99.90      -99.90      -99.90      -99.90      -99.90    
  32   -99.90      -99.90      -99.90      -99.90      -99.90      -99.90      -99.90      -99.90      -99.90      -99.90    
       -99.90      -99.90      -99.90      -99.90      -99.90      -99.90      -99.90      -99.90      -99.90      -99.90    
       -99.90      -99.90      -99.90      -99.90      -99.90      -99.90      -99.90      -99.90      -99.90      -99.90    
       -99.90      -99.90      -99.90      -99.90      -99.90      -99.90      -99.90      -99.90      -99.90      -99.90    
  33   -99.90      -99.90      -99.90      -99.90      -99.90      -99.90      -99.90      -99.90      -99.90      -99.90    
       -99.90      -99.90      -99.90      -99.90      -99.90      -99.90      -99.90      -99.90      -99.90      -99.90    
       -99.90      -99.90      -99.90      -99.90      -99.90      -99.90      -99.90      -99.90      -99.90      -99.90    
       -99.90      -99.90      -99.90      -99.90      -99.90      -99.90      -99.90      -99.90      -99.90      -99.90    
  34   -99.90      -99.90      -99.90      -99.90      -99.90      -99.90      -99.90      -99.90      -99.90      -99.90    
       -99.90      -99.90      -99.90      -99.90      -99.90      -99.90      -99.90      -99.90      -99.90      -99.90    
       -99.90      -99.90      -99.90      -99.90      -99.90      -99.90      -99.90      -99.90      -99.90      -99.90    
       -99.90      -99.90      -99.90      -99.90      -99.90      -99.90      -99.90      -99.90      -99.90      -99.90    
  35   -99.90      -99.90      -99.90      -99.90      -99.90      -99.90      -99.90      -99.90      -99.90      -99.90    
       -99.90      -99.90      -99.90      -99.90      -99.90      -99.90      -99.90      -99.90      -99.90      -99.90    
       -99.90      -99.90      -99.90      -99.90      -99.90      -99.90      -99.90      -99.90      -99.90      -99.90    
       -99.90      -99.90      -99.90      -99.90      -99.90      -99.90      -99.90      -99.90      -99.90      -99.90    
  36   -99.90      -99.90      -99.90      -99.90      -99.90      -99.90      -99.90      -99.90      -99.90      -99.90    
       -99.90      -99.90      -99.90      -99.90      -99.90      -99.90      -99.90      -99.90      -99.90      -99.90    
       -99.90      -99.90      -99.90      -99.90      -99.90      -99.90      -99.90      -99.90      -99.90      -99.90    
       -99.90      -99.90      -99.90      -99.90      -99.90      -99.90      -99.90      -99.90      -99.90      -99.90    
  37   -99.90      -99.90      -99.90      -99.90      -99.90      -99.90      -99.90      -99.90      -99.90      -99.90    
       -99.90      -99.90      -99.90      -99.90      -99.90      -99.90      -99.90      -99.90      -99.90      -99.90    
       -99.90      -99.90      -99.90      -99.90      -99.90      -99.90      -99.90      -99.90      -99.90      -99.90    
       -99.90      -99.90      -99.90      -99.90      -99.90      -99.90      -99.90      -99.90      -99.90      -99.90    
  38   -99.90      -99.90      -99.90      -99.90      -99.90      -99.90      -99.90      -99.90      -99.90      -99.90    
       -99.90      -99.90      -99.90      -99.90      -99.90      -99.90      -99.90      -99.90      -99.90      -99.90    
       -99.90      -99.90      -99.90      -99.90      -99.90      -99.90      -99.90      -99.90      -99.90      -99.90    
       -99.90      -99.90      -99.90      -99.90      -99.90      -99.90      -99.90      -99.90      -99.90      -99.90    
  39   -99.90      -99.90      -99.90      -99.90      -99.90      -99.90      -99.90      -99.90      -99.90      -99.90    
       -99.90      -99.90      -99.90      -99.90      -99.90      -99.90      -99.90      -99.90      -99.90      -99.90    
       -99.90      -99.90      -99.90      -99.90      -99.90      -99.90      -99.90      -99.90      -99.90      -99.90    
       -99.90      -99.90      -99.90      -99.90      -99.90      -99.90      -99.90      -99.90      -99.90      -99.90    
  40   -99.90      -99.90      -99.90      -99.90      -99.90      -99.90      -99.90      -99.90      -99.90      -99.90    
       -99.90      -99.90      -99.90      -99.90      -99.90      -99.90      -99.90      -99.90      -99.90      -99.90    
       -99.90      -99.90      -99.90      -99.90      -99.90      -99.90      -99.90      -99.90      -99.90      -99.90    
       -99.90      -99.90      -99.90      -99.90      -99.90      -99.90      -99.90      -99.90      -99.90      -99.90    
1
              HEAD IN LAYER   5 AT END OF TIME STEP  10 IN STRESS PERIOD    1
  ---------------------------------------------------------------------------

            1           2           3           4           5           6           7           8           9          10
           11          12          13          14          15          16          17          18          19          20
           21          22          23          24          25          26          27          28          29          30
           31          32          33          34          35          36          37          38          39          40
 ........................................................................................................................
   1   -99.90      -99.90      -99.90      -99.90      -99.90      -99.90      -99.90      -99.90      -99.90      -99.90    
       -99.90      -99.90      -99.90      -99.90      -99.90      -99.90      -99.90      -99.90      -99.90      -99.90    
       -99.90      -99.90      -99.90      -99.90      -99.90      -99.90      -99.90      -99.90      -99.90      -99.90    
       -99.90      -99.90      -99.90      -99.90      -99.90      -99.90      -99.90      -99.90      -99.90      -99.90    
   2   -99.90      -99.90      -99.90      -99.90      -99.90      -99.90      -99.90      -99.90      -99.90      -99.90    
       -99.90      -99.90      -99.90      -99.90      -99.90      -99.90      -99.90      -99.90      -99.90      -99.90    
       -99.90      -99.90      -99.90      -99.90      -99.90      -99.90      -99.90      -99.90      -99.90      -99.90    
       -99.90      -99.90      -99.90      -99.90      -99.90      -99.90      -99.90      -99.90      -99.90      -99.90    
   3   -99.90      -99.90      -99.90      -99.90      -99.90      -99.90      -99.90      -99.90      -99.90      -99.90    
       -99.90      -99.90      -99.90      -99.90      -99.90      -99.90      -99.90      -99.90      -99.90      -99.90    
       -99.90      -99.90      -99.90      -99.90      -99.90      -99.90      -99.90      -99.90      -99.90      -99.90    
       -99.90      -99.90      -99.90      -99.90      -99.90      -99.90      -99.90      -99.90      -99.90      -99.90    
   4   -99.90      -99.90      -99.90      -99.90      -99.90      -99.90      -99.90      -99.90      -99.90      -99.90    
       -99.90      -99.90      -99.90      -99.90      -99.90      -99.90      -99.90      -99.90      -99.90      -99.90    
       -99.90      -99.90      -99.90      -99.90      -99.90      -99.90      -99.90      -99.90      -99.90      -99.90    
       -99.90      -99.90      -99.90      -99.90      -99.90      -99.90      -99.90      -99.90      -99.90      -99.90    
   5   -99.90      -99.90      -99.90      -99.90      -99.90      -99.90      -99.90      -99.90      -99.90      -99.90    
       -99.90      -99.90      -99.90      -99.90      -99.90      -99.90      -99.90      -99.90      -99.90      -99.90    
       -99.90      -99.90      -99.90      -99.90      -99.90      -99.90      -99.90      -99.90      -99.90      -99.90    
       -99.90      -99.90      -99.90      -99.90      -99.90      -99.90      -99.90      -99.90      -99.90      -99.90    
   6   -99.90      -99.90      -99.90      -99.90      -99.90      -99.90      -99.90      -99.90      -99.90      -99.90    
       -99.90      -99.90      -99.90      -99.90      -99.90      -99.90      -99.90      -99.90      -99.90      -99.90    
       -99.90      -99.90      -99.90      -99.90      -99.90      -99.90      -99.90      -99.90      -99.90      -99.90    
       -99.90      -99.90      -99.90      -99.90      -99.90      -99.90      -99.90      -99.90      -99.90      -99.90    
   7   -99.90      -99.90      -99.90      -99.90      -99.90      -99.90      -99.90      -99.90      -99.90      -99.90    
       -99.90      -99.90      -99.90      -99.90      -99.90      -99.90      -99.90      -99.90      -99.90      -99.90    
       -99.90      -99.90      -99.90      -99.90      -99.90      -99.90      -99.90      -99.90      -99.90      -99.90    
       -99.90      -99.90      -99.90      -99.90      -99.90      -99.90      -99.90      -99.90      -99.90      -99.90    
   8   -99.90      -99.90      -99.90      -99.90      -99.90      -99.90      -99.90      -99.90      -99.90      -99.90    
       -99.90      -99.90      -99.90      -99.90      -99.90      -99.90      -99.90      -99.90      -99.90      -99.90    
       -99.90      -99.90      -99.90      -99.90      -99.90      -99.90      -99.90      -99.90      -99.90      -99.90    
       -99.90      -99.90      -99.90      -99.90      -99.90      -99.90      -99.90      -99.90      -99.90      -99.90    
   9   -99.90      -99.90      -99.90      -99.90      -99.90      -99.90      -99.90      -99.90      -99.90      -99.90    
       -99.90      -99.90      -99.90      -99.90      -99.90      -99.90      -99.90      -99.90      -99.90      -99.90    
       -99.90      -99.90      -99.90      -99.90      -99.90      -99.90      -99.90      -99.90      -99.90      -99.90    
       -99.90      -99.90      -99.90      -99.90      -99.90      -99.90      -99.90      -99.90      -99.90      -99.90    
  10   -99.90      -99.90      -99.90      -99.90      -99.90      -99.90      -99.90      -99.90      -99.90      -99.90    
       -99.90      -99.90      -99.90      -99.90      -99.90      -99.90      -99.90      -99.90      -99.90      -99.90    
       -99.90      -99.90      -99.90      -99.90      -99.90      -99.90      -99.90      -99.90      -99.90      -99.90    
       -99.90      -99.90      -99.90      -99.90      -99.90      -99.90      -99.90      -99.90      -99.90      -99.90    
  11   -99.90      -99.90      -99.90      -99.90      -99.90      -99.90      -99.90      -99.90      -99.90      -99.90    
       -99.90      -99.90      -99.90      -99.90      -99.90      -99.90      -99.90      -99.90      -99.90      -99.90    
       -99.90      -99.90      -99.90      -99.90      -99.90      -99.90      -99.90      -99.90      -99.90      -99.90    
       -99.90      -99.90      -99.90      -99.90      -99.90      -99.90      -99.90      -99.90      -99.90      -99.90    
  12   -99.90      -99.90      -99.90      -99.90      -99.90      -99.90      -99.90      -99.90      -99.90      -99.90    
       -99.90      -99.90      -99.90      -99.90      -99.90      -99.90      -99.90      -99.90      -99.90      -99.90    
       -99.90      -99.90      -99.90      -99.90      -99.90      -99.90      -99.90      -99.90      -99.90      -99.90    
       -99.90      -99.90      -99.90      -99.90      -99.90      -99.90      -99.90      -99.90      -99.90      -99.90    
  13   -99.90      -99.90      -99.90      -99.90      -99.90      -99.90      -99.90      -99.90      -99.90      -99.90    
       -99.90      -99.90      -99.90      -99.90      -99.90      -99.90      -99.90      -99.90      -99.90      -99.90    
       -99.90      -99.90      -99.90      -99.90      -99.90      -99.90      -99.90      -99.90      -99.90      -99.90    
       -99.90      -99.90      -99.90      -99.90      -99.90      -99.90      -99.90      -99.90      -99.90      -99.90    
  14   -99.90      -99.90      -99.90      -99.90      -99.90      -99.90      -99.90      -99.90      -99.90      -99.90    
       -99.90      -99.90      -99.90      -99.90      -99.90      -99.90      -99.90      -99.90      -99.90      -99.90    
       -99.90      -99.90      -99.90      -99.90      -99.90      -99.90      -99.90      -99.90      -99.90      -99.90    
       -99.90      -99.90      -99.90      -99.90      -99.90      -99.90      -99.90      -99.90      -99.90      -99.90    
  15   -99.90      -99.90      -99.90      -99.90      -99.90      -99.90      -99.90      -99.90      -99.90      -99.90    
       -99.90      -99.90      -99.90      -99.90      -99.90      -99.90      -99.90      -99.90      -99.90      -99.90    
       -99.90      -99.90      -99.90      -99.90      -99.90      -99.90      -99.90      -99.90      -99.90      -99.90    
       -99.90      -99.90      -99.90      -99.90      -99.90      -99.90      -99.90      -99.90      -99.90      -99.90    
  16   -99.90      -99.90      -99.90      -99.90      -99.90      -99.90      -99.90      -99.90      -99.90      -99.90    
       -99.90      -99.90      -99.90      -99.90      -99.90      -99.90      -99.90      -99.90      -99.90      -99.90    
       -99.90      -99.90      -99.90      -99.90      -99.90      -99.90      -99.90      -99.90      -99.90      -99.90    
       -99.90      -99.90      -99.90      -99.90      -99.90      -99.90      -99.90      -99.90      -99.90      -99.90    
  17   -99.90      -99.90      -99.90      -99.90      -99.90      -99.90      -99.90      -99.90      -99.90      -99.90    
       -99.90      -99.90      -99.90      -99.90      -99.90      -99.90      -99.90      -99.90      -99.90      -99.90    
       -99.90      -99.90      -99.90      -99.90      -99.90      -99.90      -99.90      -99.90      -99.90      -99.90    
       -99.90      -99.90      -99.90      -99.90      -99.90      -99.90      -99.90      -99.90      -99.90      -99.90    
  18   -99.90      -99.90      -99.90      -99.90      -99.90      -99.90      -99.90      -99.90      -99.90      -99.90    
       -99.90      -99.90      -99.90      -99.90      -99.90      -99.90      -99.90      -99.90      -99.90      -99.90    
       -99.90      -99.90      -99.90      -99.90      -99.90      -99.90      -99.90      -99.90      -99.90      -99.90    
       -99.90      -99.90      -99.90      -99.90      -99.90      -99.90      -99.90      -99.90      -99.90      -99.90    
  19   -99.90      -99.90      -99.90      -99.90      -99.90      -99.90      -99.90      -99.90      -99.90      -99.90    
       -99.90      -99.90      -99.90      -99.90      -99.90      -99.90      -99.90      -99.90      -99.90      -99.90    
       -99.90      -99.90      -99.90      -99.90      -99.90      -99.90      -99.90      -99.90      -99.90      -99.90    
       -99.90      -99.90      -99.90      -99.90      -99.90      -99.90      -99.90      -99.90      -99.90      -99.90    
  20   -99.90      -99.90      -99.90      -99.90      -99.90      -99.90      -99.90      -99.90      -99.90      -99.90    
       -99.90      -99.90      -99.90      -99.90      -99.90      -99.90      -99.90      -99.90      -99.90      -99.90    
       -99.90      -99.90      -99.90      -99.90      -99.90      -99.90      -99.90      -99.90      -99.90      -99.90    
       -99.90      -99.90      -99.90      -99.90      -99.90      -99.90      -99.90      -99.90      -99.90      -99.90    
  21   -99.90      -99.90      -99.90      -99.90      -99.90      -99.90      -99.90      -99.90      -99.90      -99.90    
       -99.90      -99.90      -99.90      -99.90      -99.90      -99.90      -99.90      -99.90      -99.90      -99.90    
       -99.90      -99.90      -99.90      -99.90      -99.90      -99.90      -99.90      -99.90      -99.90      -99.90    
       -99.90      -99.90      -99.90      -99.90      -99.90      -99.90      -99.90      -99.90      -99.90      -99.90    
  22   -99.90      -99.90      -99.90      -99.90      -99.90      -99.90      -99.90      -99.90      -99.90      -99.90    
       -99.90      -99.90      -99.90      -99.90      -99.90      -99.90      -99.90      -99.90      -99.90      -99.90    
       -99.90      -99.90      -99.90      -99.90      -99.90      -99.90      -99.90      -99.90      -99.90      -99.90    
       -99.90      -99.90      -99.90      -99.90      -99.90      -99.90      -99.90      -99.90      -99.90      -99.90    
  23   -99.90      -99.90      -99.90      -99.90      -99.90      -99.90      -99.90      -99.90      -99.90      -99.90    
       -99.90      -99.90      -99.90      -99.90      -99.90      -99.90      -99.90      -99.90      -99.90      -99.90    
       -99.90      -99.90      -99.90      -99.90      -99.90      -99.90      -99.90      -99.90      -99.90      -99.90    
       -99.90      -99.90      -99.90      -99.90      -99.90      -99.90      -99.90      -99.90      -99.90      -99.90    
  24   -99.90      -99.90      -99.90      -99.90      -99.90      -99.90      -99.90      -99.90      -99.90      -99.90    
       -99.90      -99.90      -99.90      -99.90      -99.90      -99.90      -99.90      -99.90      -99.90      -99.90    
       -99.90      -99.90      -99.90      -99.90      -99.90      -99.90      -99.90      -99.90      -99.90      -99.90    
       -99.90      -99.90      -99.90      -99.90      -99.90      -99.90      -99.90      -99.90      -99.90      -99.90    
  25   -99.90      -99.90      -99.90      -99.90      -99.90      -99.90      -99.90      -99.90      -99.90      -99.90    
       -99.90      -99.90      -99.90      -99.90      -99.90      -99.90      -99.90      -99.90      -99.90      -99.90    
       -99.90      -99.90      -99.90      -99.90      -99.90      -99.90      -99.90      -99.90      -99.90      -99.90    
       -99.90      -99.90      -99.90      -99.90      -99.90      -99.90      -99.90      -99.90      -99.90      -99.90    
  26   -99.90      -99.90      -99.90      -99.90      -99.90      -99.90      -99.90      -99.90      -99.90      -99.90    
       -99.90      -99.90      -99.90      -99.90      -99.90      -99.90      -99.90      -99.90      -99.90      -99.90    
       -99.90      -99.90      -99.90      -99.90      -99.90      -99.90      -99.90      -99.90      -99.90      -99.90    
       -99.90      -99.90      -99.90      -99.90      -99.90      -99.90      -99.90      -99.90      -99.90      -99.90    
  27   -99.90      -99.90      -99.90      -99.90      -99.90      -99.90      -99.90      -99.90      -99.90      -99.90    
       -99.90      -99.90      -99.90      -99.90      -99.90      -99.90      -99.90      -99.90      -99.90      -99.90    
       -99.90      -99.90      -99.90      -99.90      -99.90      -99.90      -99.90      -99.90      -99.90      -99.90    
       -99.90      -99.90      -99.90      -99.90      -99.90      -99.90      -99.90      -99.90      -99.90      -99.90    
  28   -99.90      -99.90      -99.90      -99.90      -99.90      -99.90      -99.90      -99.90      -99.90      -99.90    
       -99.90      -99.90      -99.90      -99.90      -99.90      -99.90      -99.90      -99.90      -99.90      -99.90    
       -99.90      -99.90      -99.90      -99.90      -99.90      -99.90      -99.90      -99.90      -99.90      -99.90    
       -99.90      -99.90      -99.90      -99.90      -99.90      -99.90      -99.90      -99.90      -99.90      -99.90    
  29   -99.90      -99.90      -99.90      -99.90      -99.90      -99.90      -99.90      -99.90      -99.90      -99.90    
       -99.90      -99.90      -99.90      -99.90      -99.90      -99.90      -99.90      -99.90      -99.90      -99.90    
       -99.90      -99.90      -99.90      -99.90      -99.90      -99.90      -99.90      -99.90      -99.90      -99.90    
       -99.90      -99.90      -99.90      -99.90      -99.90      -99.90      -99.90      -99.90      -99.90      -99.90    
  30   -99.90      -99.90      -99.90      -99.90      -99.90      -99.90      -99.90      -99.90      -99.90      -99.90    
       -99.90      -99.90      -99.90      -99.90      -99.90      -99.90      -99.90      -99.90      -99.90      -99.90    
       -99.90      -99.90      -99.90      -99.90      -99.90      -99.90      -99.90      -99.90      -99.90      -99.90    
       -99.90      -99.90      -99.90      -99.90      -99.90      -99.90      -99.90      -99.90      -99.90      -99.90    
  31   -99.90      -99.90      -99.90      -99.90      -99.90      -99.90      -99.90      -99.90      -99.90      -99.90    
       -99.90      -99.90      -99.90      -99.90      -99.90      -99.90      -99.90      -99.90      -99.90      -99.90    
       -99.90      -99.90      -99.90      -99.90      -99.90      -99.90      -99.90      -99.90      -99.90      -99.90    
       -99.90      -99.90      -99.90      -99.90      -99.90      -99.90      -99.90      -99.90      -99.90      -99.90    
  32   -99.90      -99.90      -99.90      -99.90      -99.90      -99.90      -99.90      -99.90      -99.90      -99.90    
       -99.90      -99.90      -99.90      -99.90      -99.90      -99.90      -99.90      -99.90      -99.90      -99.90    
       -99.90      -99.90      -99.90      -99.90      -99.90      -99.90      -99.90      -99.90      -99.90      -99.90    
       -99.90      -99.90      -99.90      -99.90      -99.90      -99.90      -99.90      -99.90      -99.90      -99.90    
  33   -99.90      -99.90      -99.90      -99.90      -99.90      -99.90      -99.90      -99.90      -99.90      -99.90    
       -99.90      -99.90      -99.90      -99.90      -99.90      -99.90      -99.90      -99.90      -99.90      -99.90    
       -99.90      -99.90      -99.90      -99.90      -99.90      -99.90      -99.90      -99.90      -99.90      -99.90    
       -99.90      -99.90      -99.90      -99.90      -99.90      -99.90      -99.90      -99.90      -99.90      -99.90    
  34   -99.90      -99.90      -99.90      -99.90      -99.90      -99.90      -99.90      -99.90      -99.90      -99.90    
       -99.90      -99.90      -99.90      -99.90      -99.90      -99.90      -99.90      -99.90      -99.90      -99.90    
       -99.90      -99.90      -99.90      -99.90      -99.90      -99.90      -99.90      -99.90      -99.90      -99.90    
       -99.90      -99.90      -99.90      -99.90      -99.90      -99.90      -99.90      -99.90      -99.90      -99.90    
  35   -99.90      -99.90      -99.90      -99.90      -99.90      -99.90      -99.90      -99.90      -99.90      -99.90    
       -99.90      -99.90      -99.90      -99.90      -99.90      -99.90      -99.90      -99.90      -99.90      -99.90    
       -99.90      -99.90      -99.90      -99.90      -99.90      -99.90      -99.90      -99.90      -99.90      -99.90    
       -99.90      -99.90      -99.90      -99.90      -99.90      -99.90      -99.90      -99.90      -99.90      -99.90    
  36   -99.90      -99.90      -99.90      -99.90      -99.90      -99.90      -99.90      -99.90      -99.90      -99.90    
       -99.90      -99.90      -99.90      -99.90      -99.90      -99.90      -99.90      -99.90      -99.90      -99.90    
       -99.90      -99.90      -99.90      -99.90      -99.90      -99.90      -99.90      -99.90      -99.90      -99.90    
       -99.90      -99.90      -99.90      -99.90      -99.90      -99.90      -99.90      -99.90      -99.90      -99.90    
  37   -99.90      -99.90      -99.90      -99.90      -99.90      -99.90      -99.90      -99.90      -99.90      -99.90    
       -99.90      -99.90      -99.90      -99.90      -99.90      -99.90      -99.90      -99.90      -99.90      -99.90    
       -99.90      -99.90      -99.90      -99.90      -99.90      -99.90      -99.90      -99.90      -99.90      -99.90    
       -99.90      -99.90      -99.90      -99.90      -99.90      -99.90      -99.90      -99.90      -99.90      -99.90    
  38   -99.90      -99.90      -99.90      -99.90      -99.90      -99.90      -99.90      -99.90      -99.90      -99.90    
       -99.90      -99.90      -99.90      -99.90      -99.90      -99.90      -99.90      -99.90      -99.90      -99.90    
       -99.90      -99.90      -99.90      -99.90      -99.90      -99.90      -99.90      -99.90      -99.90      -99.90    
       -99.90      -99.90      -99.90      -99.90      -99.90      -99.90      -99.90      -99.90      -99.90      -99.90    
  39   -99.90      -99.90      -99.90      -99.90      -99.90      -99.90      -99.90      -99.90      -99.90      -99.90    
       -99.90      -99.90      -99.90      -99.90      -99.90      -99.90      -99.90      -99.90      -99.90      -99.90    
       -99.90      -99.90      -99.90      -99.90      -99.90      -99.90      -99.90      -99.90      -99.90      -99.90    
       -99.90      -99.90      -99.90      -99.90      -99.90      -99.90      -99.90      -99.90      -99.90      -99.90    
  40   -99.90      -99.90      -99.90      -99.90      -99.90      -99.90      -99.90      -99.90      -99.90      -99.90    
       -99.90      -99.90      -99.90      -99.90      -99.90      -99.90      -99.90      -99.90      -99.90      -99.90    
       -99.90      -99.90      -99.90      -99.90      -99.90      -99.90      -99.90      -99.90      -99.90      -99.90    
       -99.90      -99.90      -99.90      -99.90      -99.90      -99.90      -99.90      -99.90      -99.90      -99.90    
1
              HEAD IN LAYER   6 AT END OF TIME STEP  10 IN STRESS PERIOD    1
  ---------------------------------------------------------------------------

            1           2           3           4           5           6           7           8           9          10
           11          12          13          14          15          16          17          18          19          20
           21          22          23          24          25          26          27          28          29          30
           31          32          33          34          35          36          37          38          39          40
 ........................................................................................................................
   1    42.44      -99.90      -99.90      -99.90      -99.90      -99.90      -99.90      -99.90      -99.90      -99.90    
       -99.90      -99.90      -99.90      -99.90      -99.90      -99.90      -99.90      -99.90      -99.90      -99.90    
       -99.90      -99.90      -99.90      -99.90      -99.90      -99.90      -99.90      -99.90      -99.90      -99.90    
       -99.90      -99.90      -99.90      -99.90      -99.90      -99.90      -99.90      -99.90      -99.90      -99.90    
   2   -99.90      -99.90      -99.90      -99.90      -99.90      -99.90      -99.90      -99.90      -99.90      -99.90    
       -99.90      -99.90      -99.90      -99.90      -99.90      -99.90      -99.90      -99.90      -99.90      -99.90    
       -99.90      -99.90      -99.90      -99.90      -99.90      -99.90      -99.90      -99.90      -99.90      -99.90    
       -99.90      -99.90      -99.90      -99.90      -99.90      -99.90      -99.90      -99.90      -99.90      -99.90    
   3   -99.90      -99.90      -99.90      -99.90      -99.90      -99.90      -99.90      -99.90      -99.90      -99.90    
       -99.90      -99.90      -99.90      -99.90      -99.90      -99.90      -99.90      -99.90      -99.90      -99.90    
       -99.90      -99.90      -99.90      -99.90      -99.90      -99.90      -99.90      -99.90      -99.90      -99.90    
       -99.90      -99.90      -99.90      -99.90      -99.90      -99.90      -99.90      -99.90      -99.90      -99.90    
   4   -99.90      -99.90      -99.90      -99.90      -99.90      -99.90      -99.90      -99.90      -99.90      -99.90    
       -99.90      -99.90      -99.90      -99.90      -99.90      -99.90      -99.90      -99.90      -99.90      -99.90    
       -99.90      -99.90      -99.90      -99.90      -99.90      -99.90      -99.90      -99.90      -99.90      -99.90    
       -99.90      -99.90      -99.90      -99.90      -99.90      -99.90      -99.90      -99.90      -99.90      -99.90    
   5   -99.90      -99.90      -99.90      -99.90      -99.90      -99.90      -99.90      -99.90      -99.90      -99.90    
       -99.90      -99.90      -99.90      -99.90      -99.90      -99.90      -99.90      -99.90      -99.90      -99.90    
       -99.90      -99.90      -99.90      -99.90      -99.90      -99.90      -99.90      -99.90      -99.90      -99.90    
       -99.90      -99.90      -99.90      -99.90      -99.90      -99.90      -99.90      -99.90      -99.90      -99.90    
   6   -99.90      -99.90      -99.90      -99.90      -99.90      -99.90      -99.90      -99.90      -99.90      -99.90    
       -99.90      -99.90      -99.90      -99.90      -99.90      -99.90      -99.90      -99.90      -99.90      -99.90    
       -99.90      -99.90      -99.90      -99.90      -99.90      -99.90      -99.90      -99.90      -99.90      -99.90    
       -99.90      -99.90      -99.90      -99.90      -99.90      -99.90      -99.90      -99.90      -99.90      -99.90    
   7   -99.90      -99.90      -99.90      -99.90      -99.90      -99.90      -99.90      -99.90      -99.90      -99.90    
       -99.90      -99.90      -99.90      -99.90      -99.90      -99.90      -99.90      -99.90      -99.90      -99.90    
       -99.90      -99.90      -99.90      -99.90      -99.90      -99.90      -99.90      -99.90      -99.90      -99.90    
       -99.90      -99.90      -99.90      -99.90      -99.90      -99.90      -99.90      -99.90      -99.90      -99.90    
   8   -99.90      -99.90      -99.90      -99.90      -99.90      -99.90      -99.90      -99.90      -99.90      -99.90    
       -99.90      -99.90      -99.90      -99.90      -99.90      -99.90      -99.90      -99.90      -99.90      -99.90    
       -99.90      -99.90      -99.90      -99.90      -99.90      -99.90      -99.90      -99.90      -99.90      -99.90    
       -99.90      -99.90      -99.90      -99.90      -99.90      -99.90      -99.90      -99.90      -99.90      -99.90    
   9   -99.90      -99.90      -99.90      -99.90      -99.90      -99.90      -99.90      -99.90      -99.90      -99.90    
       -99.90      -99.90      -99.90      -99.90      -99.90      -99.90      -99.90      -99.90      -99.90      -99.90    
       -99.90      -99.90      -99.90      -99.90      -99.90      -99.90      -99.90      -99.90      -99.90      -99.90    
       -99.90      -99.90      -99.90      -99.90      -99.90      -99.90      -99.90      -99.90      -99.90      -99.90    
  10   -99.90      -99.90      -99.90      -99.90      -99.90      -99.90      -99.90      -99.90      -99.90      -99.90    
       -99.90      -99.90      -99.90      -99.90      -99.90      -99.90      -99.90      -99.90      -99.90      -99.90    
       -99.90      -99.90      -99.90      -99.90      -99.90      -99.90      -99.90      -99.90      -99.90      -99.90    
       -99.90      -99.90      -99.90      -99.90      -99.90      -99.90      -99.90      -99.90      -99.90      -99.90    
  11   -99.90      -99.90      -99.90      -99.90      -99.90      -99.90      -99.90      -99.90      -99.90      -99.90    
       -99.90      -99.90      -99.90      -99.90      -99.90      -99.90      -99.90      -99.90      -99.90      -99.90    
       -99.90      -99.90      -99.90      -99.90      -99.90      -99.90      -99.90      -99.90      -99.90      -99.90    
       -99.90      -99.90      -99.90      -99.90      -99.90      -99.90      -99.90      -99.90      -99.90      -99.90    
  12   -99.90      -99.90      -99.90      -99.90      -99.90      -99.90      -99.90      -99.90      -99.90      -99.90    
       -99.90      -99.90      -99.90      -99.90      -99.90      -99.90      -99.90      -99.90      -99.90      -99.90    
       -99.90      -99.90      -99.90      -99.90      -99.90      -99.90      -99.90      -99.90      -99.90      -99.90    
       -99.90      -99.90      -99.90      -99.90      -99.90      -99.90      -99.90      -99.90      -99.90      -99.90    
  13   -99.90      -99.90      -99.90      -99.90      -99.90      -99.90      -99.90      -99.90      -99.90      -99.90    
       -99.90      -99.90      -99.90      -99.90      -99.90      -99.90      -99.90      -99.90      -99.90      -99.90    
       -99.90      -99.90      -99.90      -99.90      -99.90      -99.90      -99.90      -99.90      -99.90      -99.90    
       -99.90      -99.90      -99.90      -99.90      -99.90      -99.90      -99.90      -99.90      -99.90      -99.90    
  14   -99.90      -99.90      -99.90      -99.90      -99.90      -99.90      -99.90      -99.90      -99.90      -99.90    
       -99.90      -99.90      -99.90      -99.90      -99.90      -99.90      -99.90      -99.90      -99.90      -99.90    
       -99.90      -99.90      -99.90      -99.90      -99.90      -99.90      -99.90      -99.90      -99.90      -99.90    
       -99.90      -99.90      -99.90      -99.90      -99.90      -99.90      -99.90      -99.90      -99.90      -99.90    
  15   -99.90      -99.90      -99.90      -99.90      -99.90      -99.90      -99.90      -99.90      -99.90      -99.90    
       -99.90      -99.90      -99.90      -99.90      -99.90      -99.90      -99.90      -99.90      -99.90      -99.90    
       -99.90      -99.90      -99.90      -99.90      -99.90      -99.90      -99.90      -99.90      -99.90      -99.90    
       -99.90      -99.90      -99.90      -99.90      -99.90      -99.90      -99.90      -99.90      -99.90      -99.90    
  16   -99.90      -99.90      -99.90      -99.90      -99.90      -99.90      -99.90      -99.90      -99.90      -99.90    
       -99.90      -99.90      -99.90      -99.90      -99.90      -99.90      -99.90      -99.90      -99.90      -99.90    
       -99.90      -99.90      -99.90      -99.90      -99.90      -99.90      -99.90      -99.90      -99.90      -99.90    
       -99.90      -99.90      -99.90      -99.90      -99.90      -99.90      -99.90      -99.90      -99.90      -99.90    
  17   -99.90      -99.90      -99.90      -99.90      -99.90      -99.90      -99.90      -99.90      -99.90      -99.90    
       -99.90      -99.90      -99.90      -99.90      -99.90      -99.90      -99.90      -99.90      -99.90      -99.90    
       -99.90      -99.90      -99.90      -99.90      -99.90      -99.90      -99.90      -99.90      -99.90      -99.90    
       -99.90      -99.90      -99.90      -99.90      -99.90      -99.90      -99.90      -99.90      -99.90      -99.90    
  18   -99.90      -99.90      -99.90      -99.90      -99.90      -99.90      -99.90      -99.90      -99.90      -99.90    
       -99.90      -99.90      -99.90      -99.90      -99.90      -99.90      -99.90      -99.90      -99.90      -99.90    
       -99.90      -99.90      -99.90      -99.90      -99.90      -99.90      -99.90      -99.90      -99.90      -99.90    
       -99.90      -99.90      -99.90      -99.90      -99.90      -99.90      -99.90      -99.90      -99.90      -99.90    
  19   -99.90      -99.90      -99.90      -99.90      -99.90      -99.90      -99.90      -99.90      -99.90      -99.90    
       -99.90      -99.90      -99.90      -99.90      -99.90      -99.90      -99.90      -99.90      -99.90      -99.90    
       -99.90      -99.90      -99.90      -99.90      -99.90      -99.90      -99.90      -99.90      -99.90      -99.90    
       -99.90      -99.90      -99.90      -99.90      -99.90      -99.90      -99.90      -99.90      -99.90      -99.90    
  20   -99.90      -99.90      -99.90      -99.90      -99.90      -99.90      -99.90      -99.90      -99.90      -99.90    
       -99.90      -99.90      -99.90      -99.90      -99.90      -99.90      -99.90      -99.90      -99.90      -99.90    
       -99.90      -99.90      -99.90      -99.90      -99.90      -99.90      -99.90      -99.90      -99.90      -99.90    
       -99.90      -99.90      -99.90      -99.90      -99.90      -99.90      -99.90      -99.90      -99.90      -99.90    
  21   -99.90      -99.90      -99.90      -99.90      -99.90      -99.90      -99.90      -99.90      -99.90      -99.90    
       -99.90      -99.90      -99.90      -99.90      -99.90      -99.90      -99.90      -99.90      -99.90      -99.90    
       -99.90      -99.90      -99.90      -99.90      -99.90      -99.90      -99.90      -99.90      -99.90      -99.90    
       -99.90      -99.90      -99.90      -99.90      -99.90      -99.90      -99.90      -99.90      -99.90      -99.90    
  22   -99.90      -99.90      -99.90      -99.90      -99.90      -99.90      -99.90      -99.90      -99.90      -99.90    
       -99.90      -99.90      -99.90      -99.90      -99.90      -99.90      -99.90      -99.90      -99.90      -99.90    
       -99.90      -99.90      -99.90      -99.90      -99.90      -99.90      -99.90      -99.90      -99.90      -99.90    
       -99.90      -99.90      -99.90      -99.90      -99.90      -99.90      -99.90      -99.90      -99.90      -99.90    
  23   -99.90      -99.90      -99.90      -99.90      -99.90      -99.90      -99.90      -99.90      -99.90      -99.90    
       -99.90      -99.90      -99.90      -99.90      -99.90      -99.90      -99.90      -99.90      -99.90      -99.90    
       -99.90      -99.90      -99.90      -99.90      -99.90      -99.90      -99.90      -99.90      -99.90      -99.90    
       -99.90      -99.90      -99.90      -99.90      -99.90      -99.90      -99.90      -99.90      -99.90      -99.90    
  24   -99.90      -99.90      -99.90      -99.90      -99.90      -99.90      -99.90      -99.90      -99.90      -99.90    
       -99.90      -99.90      -99.90      -99.90      -99.90      -99.90      -99.90      -99.90      -99.90      -99.90    
       -99.90      -99.90      -99.90      -99.90      -99.90      -99.90      -99.90      -99.90      -99.90      -99.90    
       -99.90      -99.90      -99.90      -99.90      -99.90      -99.90      -99.90      -99.90      -99.90      -99.90    
  25   -99.90      -99.90      -99.90      -99.90      -99.90      -99.90      -99.90      -99.90      -99.90      -99.90    
       -99.90      -99.90      -99.90      -99.90      -99.90      -99.90      -99.90      -99.90      -99.90      -99.90    
       -99.90      -99.90      -99.90      -99.90      -99.90      -99.90      -99.90      -99.90      -99.90      -99.90    
       -99.90      -99.90      -99.90      -99.90      -99.90      -99.90      -99.90      -99.90      -99.90      -99.90    
  26   -99.90      -99.90      -99.90      -99.90      -99.90      -99.90      -99.90      -99.90      -99.90      -99.90    
       -99.90      -99.90      -99.90      -99.90      -99.90      -99.90      -99.90      -99.90      -99.90      -99.90    
       -99.90      -99.90      -99.90      -99.90      -99.90      -99.90      -99.90      -99.90      -99.90      -99.90    
       -99.90      -99.90      -99.90      -99.90      -99.90      -99.90      -99.90      -99.90      -99.90      -99.90    
  27   -99.90      -99.90      -99.90      -99.90      -99.90      -99.90      -99.90      -99.90      -99.90      -99.90    
       -99.90      -99.90      -99.90      -99.90      -99.90      -99.90      -99.90      -99.90      -99.90      -99.90    
       -99.90      -99.90      -99.90      -99.90      -99.90      -99.90      -99.90      -99.90      -99.90      -99.90    
       -99.90      -99.90      -99.90      -99.90      -99.90      -99.90      -99.90      -99.90      -99.90      -99.90    
  28   -99.90      -99.90      -99.90      -99.90      -99.90      -99.90      -99.90      -99.90      -99.90      -99.90    
       -99.90      -99.90      -99.90      -99.90      -99.90      -99.90      -99.90      -99.90      -99.90      -99.90    
       -99.90      -99.90      -99.90      -99.90      -99.90      -99.90      -99.90      -99.90      -99.90      -99.90    
       -99.90      -99.90      -99.90      -99.90      -99.90      -99.90      -99.90      -99.90      -99.90      -99.90    
  29   -99.90      -99.90      -99.90      -99.90      -99.90      -99.90      -99.90      -99.90      -99.90      -99.90    
       -99.90      -99.90      -99.90      -99.90      -99.90      -99.90      -99.90      -99.90      -99.90      -99.90    
       -99.90      -99.90      -99.90      -99.90      -99.90      -99.90      -99.90      -99.90      -99.90      -99.90    
       -99.90      -99.90      -99.90      -99.90      -99.90      -99.90      -99.90      -99.90      -99.90      -99.90    
  30   -99.90      -99.90      -99.90      -99.90      -99.90      -99.90      -99.90      -99.90      -99.90      -99.90    
       -99.90      -99.90      -99.90      -99.90      -99.90      -99.90      -99.90      -99.90      -99.90      -99.90    
       -99.90      -99.90      -99.90      -99.90      -99.90      -99.90      -99.90      -99.90      -99.90      -99.90    
       -99.90      -99.90      -99.90      -99.90      -99.90      -99.90      -99.90      -99.90      -99.90      -99.90    
  31   -99.90      -99.90      -99.90      -99.90      -99.90      -99.90      -99.90      -99.90      -99.90      -99.90    
       -99.90      -99.90      -99.90      -99.90      -99.90      -99.90      -99.90      -99.90      -99.90      -99.90    
       -99.90      -99.90      -99.90      -99.90      -99.90      -99.90      -99.90      -99.90      -99.90      -99.90    
       -99.90      -99.90      -99.90      -99.90      -99.90      -99.90      -99.90      -99.90      -99.90      -99.90    
  32   -99.90      -99.90      -99.90      -99.90      -99.90      -99.90      -99.90      -99.90      -99.90      -99.90    
       -99.90      -99.90      -99.90      -99.90      -99.90      -99.90      -99.90      -99.90      -99.90      -99.90    
       -99.90      -99.90      -99.90      -99.90      -99.90      -99.90      -99.90      -99.90      -99.90      -99.90    
       -99.90      -99.90      -99.90      -99.90      -99.90      -99.90      -99.90      -99.90      -99.90      -99.90    
  33   -99.90      -99.90      -99.90      -99.90      -99.90      -99.90      -99.90      -99.90      -99.90      -99.90    
       -99.90      -99.90      -99.90      -99.90      -99.90      -99.90      -99.90      -99.90      -99.90      -99.90    
       -99.90      -99.90      -99.90      -99.90      -99.90      -99.90      -99.90      -99.90      -99.90      -99.90    
       -99.90      -99.90      -99.90      -99.90      -99.90      -99.90      -99.90      -99.90      -99.90      -99.90    
  34   -99.90      -99.90      -99.90      -99.90      -99.90      -99.90      -99.90      -99.90      -99.90      -99.90    
       -99.90      -99.90      -99.90      -99.90      -99.90      -99.90      -99.90      -99.90      -99.90      -99.90    
       -99.90      -99.90      -99.90      -99.90      -99.90      -99.90      -99.90      -99.90      -99.90      -99.90    
       -99.90      -99.90      -99.90      -99.90      -99.90      -99.90      -99.90      -99.90      -99.90      -99.90    
  35   -99.90      -99.90      -99.90      -99.90      -99.90      -99.90      -99.90      -99.90      -99.90      -99.90    
       -99.90      -99.90      -99.90      -99.90      -99.90      -99.90      -99.90      -99.90      -99.90      -99.90    
       -99.90      -99.90      -99.90      -99.90      -99.90      -99.90      -99.90      -99.90      -99.90      -99.90    
       -99.90      -99.90      -99.90      -99.90      -99.90      -99.90      -99.90      -99.90      -99.90      -99.90    
  36   -99.90      -99.90      -99.90      -99.90      -99.90      -99.90      -99.90      -99.90      -99.90      -99.90    
       -99.90      -99.90      -99.90      -99.90      -99.90      -99.90      -99.90      -99.90      -99.90      -99.90    
       -99.90      -99.90      -99.90      -99.90      -99.90      -99.90      -99.90      -99.90      -99.90      -99.90    
       -99.90      -99.90      -99.90      -99.90      -99.90      -99.90      -99.90      -99.90      -99.90      -99.90    
  37   -99.90      -99.90      -99.90      -99.90      -99.90      -99.90      -99.90      -99.90      -99.90      -99.90    
       -99.90      -99.90      -99.90      -99.90      -99.90      -99.90      -99.90      -99.90      -99.90      -99.90    
       -99.90      -99.90      -99.90      -99.90      -99.90      -99.90      -99.90      -99.90      -99.90      -99.90    
       -99.90      -99.90      -99.90      -99.90      -99.90      -99.90      -99.90      -99.90      -99.90      -99.90    
  38   -99.90      -99.90      -99.90      -99.90      -99.90      -99.90      -99.90      -99.90      -99.90      -99.90    
       -99.90      -99.90      -99.90      -99.90      -99.90      -99.90      -99.90      -99.90      -99.90      -99.90    
       -99.90      -99.90      -99.90      -99.90      -99.90      -99.90      -99.90      -99.90      -99.90      -99.90    
       -99.90      -99.90      -99.90      -99.90      -99.90      -99.90      -99.90      -99.90      -99.90      -99.90    
  39   -99.90      -99.90      -99.90      -99.90      -99.90      -99.90      -99.90      -99.90      -99.90      -99.90    
       -99.90      -99.90      -99.90      -99.90      -99.90      -99.90      -99.90      -99.90      -99.90      -99.90    
       -99.90      -99.90      -99.90      -99.90      -99.90      -99.90      -99.90      -99.90      -99.90      -99.90    
       -99.90      -99.90      -99.90      -99.90      -99.90      -99.90      -99.90      -99.90      -99.90      -99.90    
  40   -99.90      -99.90      -99.90      -99.90      -99.90      -99.90      -99.90      -99.90      -99.90      -99.90    
       -99.90      -99.90      -99.90      -99.90      -99.90      -99.90      -99.90      -99.90      -99.90      -99.90    
       -99.90      -99.90      -99.90      -99.90      -99.90      -99.90      -99.90      -99.90      -99.90      -99.90    
       -99.90      -99.90      -99.90      -99.90      -99.90      -99.90      -99.90      -99.90      -99.90      -99.90    
1
              HEAD IN LAYER   7 AT END OF TIME STEP  10 IN STRESS PERIOD    1
  ---------------------------------------------------------------------------

            1           2           3           4           5           6           7           8           9          10
           11          12          13          14          15          16          17          18          19          20
           21          22          23          24          25          26          27          28          29          30
           31          32          33          34          35          36          37          38          39          40
 ........................................................................................................................
   1    41.60       40.22      -99.90      -99.90      -99.90      -99.90      -99.90      -99.90      -99.90      -99.90    
       -99.90      -99.90      -99.90      -99.90      -99.90      -99.90      -99.90      -99.90      -99.90      -99.90    
       -99.90      -99.90      -99.90      -99.90      -99.90      -99.90      -99.90      -99.90      -99.90      -99.90    
       -99.90      -99.90      -99.90      -99.90      -99.90      -99.90      -99.90      -99.90      -99.90      -99.90    
   2    40.22       38.84      -99.90      -99.90      -99.90      -99.90      -99.90      -99.90      -99.90      -99.90    
       -99.90      -99.90      -99.90      -99.90      -99.90      -99.90      -99.90      -99.90      -99.90      -99.90    
       -99.90      -99.90      -99.90      -99.90      -99.90      -99.90      -99.90      -99.90      -99.90      -99.90    
       -99.90      -99.90      -99.90      -99.90      -99.90      -99.90      -99.90      -99.90      -99.90      -99.90    
   3   -99.90      -99.90      -99.90      -99.90      -99.90      -99.90      -99.90      -99.90      -99.90      -99.90    
       -99.90      -99.90      -99.90      -99.90      -99.90      -99.90      -99.90      -99.90      -99.90      -99.90    
       -99.90      -99.90      -99.90      -99.90      -99.90      -99.90      -99.90      -99.90      -99.90      -99.90    
       -99.90      -99.90      -99.90      -99.90      -99.90      -99.90      -99.90      -99.90      -99.90      -99.90    
   4   -99.90      -99.90      -99.90      -99.90      -99.90      -99.90      -99.90      -99.90      -99.90      -99.90    
       -99.90      -99.90      -99.90      -99.90      -99.90      -99.90      -99.90      -99.90      -99.90      -99.90    
       -99.90      -99.90      -99.90      -99.90      -99.90      -99.90      -99.90      -99.90      -99.90      -99.90    
       -99.90      -99.90      -99.90      -99.90      -99.90      -99.90      -99.90      -99.90      -99.90      -99.90    
   5   -99.90      -99.90      -99.90      -99.90      -99.90      -99.90      -99.90      -99.90      -99.90      -99.90    
       -99.90      -99.90      -99.90      -99.90      -99.90      -99.90      -99.90      -99.90      -99.90      -99.90    
       -99.90      -99.90      -99.90      -99.90      -99.90      -99.90      -99.90      -99.90      -99.90      -99.90    
       -99.90      -99.90      -99.90      -99.90      -99.90      -99.90      -99.90      -99.90      -99.90      -99.90    
   6   -99.90      -99.90      -99.90      -99.90      -99.90      -99.90      -99.90      -99.90      -99.90      -99.90    
       -99.90      -99.90      -99.90      -99.90      -99.90      -99.90      -99.90      -99.90      -99.90      -99.90    
       -99.90      -99.90      -99.90      -99.90      -99.90      -99.90      -99.90      -99.90      -99.90      -99.90    
       -99.90      -99.90      -99.90      -99.90      -99.90      -99.90      -99.90      -99.90      -99.90      -99.90    
   7   -99.90      -99.90      -99.90      -99.90      -99.90      -99.90      -99.90      -99.90      -99.90      -99.90    
       -99.90      -99.90      -99.90      -99.90      -99.90      -99.90      -99.90      -99.90      -99.90      -99.90    
       -99.90      -99.90      -99.90      -99.90      -99.90      -99.90      -99.90      -99.90      -99.90      -99.90    
       -99.90      -99.90      -99.90      -99.90      -99.90      -99.90      -99.90      -99.90      -99.90      -99.90    
   8   -99.90      -99.90      -99.90      -99.90      -99.90      -99.90      -99.90      -99.90      -99.90      -99.90    
       -99.90      -99.90      -99.90      -99.90      -99.90      -99.90      -99.90      -99.90      -99.90      -99.90    
       -99.90      -99.90      -99.90      -99.90      -99.90      -99.90      -99.90      -99.90      -99.90      -99.90    
       -99.90      -99.90      -99.90      -99.90      -99.90      -99.90      -99.90      -99.90      -99.90      -99.90    
   9   -99.90      -99.90      -99.90      -99.90      -99.90      -99.90      -99.90      -99.90      -99.90      -99.90    
       -99.90      -99.90      -99.90      -99.90      -99.90      -99.90      -99.90      -99.90      -99.90      -99.90    
       -99.90      -99.90      -99.90      -99.90      -99.90      -99.90      -99.90      -99.90      -99.90      -99.90    
       -99.90      -99.90      -99.90      -99.90      -99.90      -99.90      -99.90      -99.90      -99.90      -99.90    
  10   -99.90      -99.90      -99.90      -99.90      -99.90      -99.90      -99.90      -99.90      -99.90      -99.90    
       -99.90      -99.90      -99.90      -99.90      -99.90      -99.90      -99.90      -99.90      -99.90      -99.90    
       -99.90      -99.90      -99.90      -99.90      -99.90      -99.90      -99.90      -99.90      -99.90      -99.90    
       -99.90      -99.90      -99.90      -99.90      -99.90      -99.90      -99.90      -99.90      -99.90      -99.90    
  11   -99.90      -99.90      -99.90      -99.90      -99.90      -99.90      -99.90      -99.90      -99.90      -99.90    
       -99.90      -99.90      -99.90      -99.90      -99.90      -99.90      -99.90      -99.90      -99.90      -99.90    
       -99.90      -99.90      -99.90      -99.90      -99.90      -99.90      -99.90      -99.90      -99.90      -99.90    
       -99.90      -99.90      -99.90      -99.90      -99.90      -99.90      -99.90      -99.90      -99.90      -99.90    
  12   -99.90      -99.90      -99.90      -99.90      -99.90      -99.90      -99.90      -99.90      -99.90      -99.90    
       -99.90      -99.90      -99.90      -99.90      -99.90      -99.90      -99.90      -99.90      -99.90      -99.90    
       -99.90      -99.90      -99.90      -99.90      -99.90      -99.90      -99.90      -99.90      -99.90      -99.90    
       -99.90      -99.90      -99.90      -99.90      -99.90      -99.90      -99.90      -99.90      -99.90      -99.90    
  13   -99.90      -99.90      -99.90      -99.90      -99.90      -99.90      -99.90      -99.90      -99.90      -99.90    
       -99.90      -99.90      -99.90      -99.90      -99.90      -99.90      -99.90      -99.90      -99.90      -99.90    
       -99.90      -99.90      -99.90      -99.90      -99.90      -99.90      -99.90      -99.90      -99.90      -99.90    
       -99.90      -99.90      -99.90      -99.90      -99.90      -99.90      -99.90      -99.90      -99.90      -99.90    
  14   -99.90      -99.90      -99.90      -99.90      -99.90      -99.90      -99.90      -99.90      -99.90      -99.90    
       -99.90      -99.90      -99.90      -99.90      -99.90      -99.90      -99.90      -99.90      -99.90      -99.90    
       -99.90      -99.90      -99.90      -99.90      -99.90      -99.90      -99.90      -99.90      -99.90      -99.90    
       -99.90      -99.90      -99.90      -99.90      -99.90      -99.90      -99.90      -99.90      -99.90      -99.90    
  15   -99.90      -99.90      -99.90      -99.90      -99.90      -99.90      -99.90      -99.90      -99.90      -99.90    
       -99.90      -99.90      -99.90      -99.90      -99.90      -99.90      -99.90      -99.90      -99.90      -99.90    
       -99.90      -99.90      -99.90      -99.90      -99.90      -99.90      -99.90      -99.90      -99.90      -99.90    
       -99.90      -99.90      -99.90      -99.90      -99.90      -99.90      -99.90      -99.90      -99.90      -99.90    
  16   -99.90      -99.90      -99.90      -99.90      -99.90      -99.90      -99.90      -99.90      -99.90      -99.90    
       -99.90      -99.90      -99.90      -99.90      -99.90      -99.90      -99.90      -99.90      -99.90      -99.90    
       -99.90      -99.90      -99.90      -99.90      -99.90      -99.90      -99.90      -99.90      -99.90      -99.90    
       -99.90      -99.90      -99.90      -99.90      -99.90      -99.90      -99.90      -99.90      -99.90      -99.90    
  17   -99.90      -99.90      -99.90      -99.90      -99.90      -99.90      -99.90      -99.90      -99.90      -99.90    
       -99.90      -99.90      -99.90      -99.90      -99.90      -99.90      -99.90      -99.90      -99.90      -99.90    
       -99.90      -99.90      -99.90      -99.90      -99.90      -99.90      -99.90      -99.90      -99.90      -99.90    
       -99.90      -99.90      -99.90      -99.90      -99.90      -99.90      -99.90      -99.90      -99.90      -99.90    
  18   -99.90      -99.90      -99.90      -99.90      -99.90      -99.90      -99.90      -99.90      -99.90      -99.90    
       -99.90      -99.90      -99.90      -99.90      -99.90      -99.90      -99.90      -99.90      -99.90      -99.90    
       -99.90      -99.90      -99.90      -99.90      -99.90      -99.90      -99.90      -99.90      -99.90      -99.90    
       -99.90      -99.90      -99.90      -99.90      -99.90      -99.90      -99.90      -99.90      -99.90      -99.90    
  19   -99.90      -99.90      -99.90      -99.90      -99.90      -99.90      -99.90      -99.90      -99.90      -99.90    
       -99.90      -99.90      -99.90      -99.90      -99.90      -99.90      -99.90      -99.90      -99.90      -99.90    
       -99.90      -99.90      -99.90      -99.90      -99.90      -99.90      -99.90      -99.90      -99.90      -99.90    
       -99.90      -99.90      -99.90      -99.90      -99.90      -99.90      -99.90      -99.90      -99.90      -99.90    
  20   -99.90      -99.90      -99.90      -99.90      -99.90      -99.90      -99.90      -99.90      -99.90      -99.90    
       -99.90      -99.90      -99.90      -99.90      -99.90      -99.90      -99.90      -99.90      -99.90      -99.90    
       -99.90      -99.90      -99.90      -99.90      -99.90      -99.90      -99.90      -99.90      -99.90      -99.90    
       -99.90      -99.90      -99.90      -99.90      -99.90      -99.90      -99.90      -99.90      -99.90      -99.90    
  21   -99.90      -99.90      -99.90      -99.90      -99.90      -99.90      -99.90      -99.90      -99.90      -99.90    
       -99.90      -99.90      -99.90      -99.90      -99.90      -99.90      -99.90      -99.90      -99.90      -99.90    
       -99.90      -99.90      -99.90      -99.90      -99.90      -99.90      -99.90      -99.90      -99.90      -99.90    
       -99.90      -99.90      -99.90      -99.90      -99.90      -99.90      -99.90      -99.90      -99.90      -99.90    
  22   -99.90      -99.90      -99.90      -99.90      -99.90      -99.90      -99.90      -99.90      -99.90      -99.90    
       -99.90      -99.90      -99.90      -99.90      -99.90      -99.90      -99.90      -99.90      -99.90      -99.90    
       -99.90      -99.90      -99.90      -99.90      -99.90      -99.90      -99.90      -99.90      -99.90      -99.90    
       -99.90      -99.90      -99.90      -99.90      -99.90      -99.90      -99.90      -99.90      -99.90      -99.90    
  23   -99.90      -99.90      -99.90      -99.90      -99.90      -99.90      -99.90      -99.90      -99.90      -99.90    
       -99.90      -99.90      -99.90      -99.90      -99.90      -99.90      -99.90      -99.90      -99.90      -99.90    
       -99.90      -99.90      -99.90      -99.90      -99.90      -99.90      -99.90      -99.90      -99.90      -99.90    
       -99.90      -99.90      -99.90      -99.90      -99.90      -99.90      -99.90      -99.90      -99.90      -99.90    
  24   -99.90      -99.90      -99.90      -99.90      -99.90      -99.90      -99.90      -99.90      -99.90      -99.90    
       -99.90      -99.90      -99.90      -99.90      -99.90      -99.90      -99.90      -99.90      -99.90      -99.90    
       -99.90      -99.90      -99.90      -99.90      -99.90      -99.90      -99.90      -99.90      -99.90      -99.90    
       -99.90      -99.90      -99.90      -99.90      -99.90      -99.90      -99.90      -99.90      -99.90      -99.90    
  25   -99.90      -99.90      -99.90      -99.90      -99.90      -99.90      -99.90      -99.90      -99.90      -99.90    
       -99.90      -99.90      -99.90      -99.90      -99.90      -99.90      -99.90      -99.90      -99.90      -99.90    
       -99.90      -99.90      -99.90      -99.90      -99.90      -99.90      -99.90      -99.90      -99.90      -99.90    
       -99.90      -99.90      -99.90      -99.90      -99.90      -99.90      -99.90      -99.90      -99.90      -99.90    
  26   -99.90      -99.90      -99.90      -99.90      -99.90      -99.90      -99.90      -99.90      -99.90      -99.90    
       -99.90      -99.90      -99.90      -99.90      -99.90      -99.90      -99.90      -99.90      -99.90      -99.90    
       -99.90      -99.90      -99.90      -99.90      -99.90      -99.90      -99.90      -99.90      -99.90      -99.90    
       -99.90      -99.90      -99.90      -99.90      -99.90      -99.90      -99.90      -99.90      -99.90      -99.90    
  27   -99.90      -99.90      -99.90      -99.90      -99.90      -99.90      -99.90      -99.90      -99.90      -99.90    
       -99.90      -99.90      -99.90      -99.90      -99.90      -99.90      -99.90      -99.90      -99.90      -99.90    
       -99.90      -99.90      -99.90      -99.90      -99.90      -99.90      -99.90      -99.90      -99.90      -99.90    
       -99.90      -99.90      -99.90      -99.90      -99.90      -99.90      -99.90      -99.90      -99.90      -99.90    
  28   -99.90      -99.90      -99.90      -99.90      -99.90      -99.90      -99.90      -99.90      -99.90      -99.90    
       -99.90      -99.90      -99.90      -99.90      -99.90      -99.90      -99.90      -99.90      -99.90      -99.90    
       -99.90      -99.90      -99.90      -99.90      -99.90      -99.90      -99.90      -99.90      -99.90      -99.90    
       -99.90      -99.90      -99.90      -99.90      -99.90      -99.90      -99.90      -99.90      -99.90      -99.90    
  29   -99.90      -99.90      -99.90      -99.90      -99.90      -99.90      -99.90      -99.90      -99.90      -99.90    
       -99.90      -99.90      -99.90      -99.90      -99.90      -99.90      -99.90      -99.90      -99.90      -99.90    
       -99.90      -99.90      -99.90      -99.90      -99.90      -99.90      -99.90      -99.90      -99.90      -99.90    
       -99.90      -99.90      -99.90      -99.90      -99.90      -99.90      -99.90      -99.90      -99.90      -99.90    
  30   -99.90      -99.90      -99.90      -99.90      -99.90      -99.90      -99.90      -99.90      -99.90      -99.90    
       -99.90      -99.90      -99.90      -99.90      -99.90      -99.90      -99.90      -99.90      -99.90      -99.90    
       -99.90      -99.90      -99.90      -99.90      -99.90      -99.90      -99.90      -99.90      -99.90      -99.90    
       -99.90      -99.90      -99.90      -99.90      -99.90      -99.90      -99.90      -99.90      -99.90      -99.90    
  31   -99.90      -99.90      -99.90      -99.90      -99.90      -99.90      -99.90      -99.90      -99.90      -99.90    
       -99.90      -99.90      -99.90      -99.90      -99.90      -99.90      -99.90      -99.90      -99.90      -99.90    
       -99.90      -99.90      -99.90      -99.90      -99.90      -99.90      -99.90      -99.90      -99.90      -99.90    
       -99.90      -99.90      -99.90      -99.90      -99.90      -99.90      -99.90      -99.90      -99.90      -99.90    
  32   -99.90      -99.90      -99.90      -99.90      -99.90      -99.90      -99.90      -99.90      -99.90      -99.90    
       -99.90      -99.90      -99.90      -99.90      -99.90      -99.90      -99.90      -99.90      -99.90      -99.90    
       -99.90      -99.90      -99.90      -99.90      -99.90      -99.90      -99.90      -99.90      -99.90      -99.90    
       -99.90      -99.90      -99.90      -99.90      -99.90      -99.90      -99.90      -99.90      -99.90      -99.90    
  33   -99.90      -99.90      -99.90      -99.90      -99.90      -99.90      -99.90      -99.90      -99.90      -99.90    
       -99.90      -99.90      -99.90      -99.90      -99.90      -99.90      -99.90      -99.90      -99.90      -99.90    
       -99.90      -99.90      -99.90      -99.90      -99.90      -99.90      -99.90      -99.90      -99.90      -99.90    
       -99.90      -99.90      -99.90      -99.90      -99.90      -99.90      -99.90      -99.90      -99.90      -99.90    
  34   -99.90      -99.90      -99.90      -99.90      -99.90      -99.90      -99.90      -99.90      -99.90      -99.90    
       -99.90      -99.90      -99.90      -99.90      -99.90      -99.90      -99.90      -99.90      -99.90      -99.90    
       -99.90      -99.90      -99.90      -99.90      -99.90      -99.90      -99.90      -99.90      -99.90      -99.90    
       -99.90      -99.90      -99.90      -99.90      -99.90      -99.90      -99.90      -99.90      -99.90      -99.90    
  35   -99.90      -99.90      -99.90      -99.90      -99.90      -99.90      -99.90      -99.90      -99.90      -99.90    
       -99.90      -99.90      -99.90      -99.90      -99.90      -99.90      -99.90      -99.90      -99.90      -99.90    
       -99.90      -99.90      -99.90      -99.90      -99.90      -99.90      -99.90      -99.90      -99.90      -99.90    
       -99.90      -99.90      -99.90      -99.90      -99.90      -99.90      -99.90      -99.90      -99.90      -99.90    
  36   -99.90      -99.90      -99.90      -99.90      -99.90      -99.90      -99.90      -99.90      -99.90      -99.90    
       -99.90      -99.90      -99.90      -99.90      -99.90      -99.90      -99.90      -99.90      -99.90      -99.90    
       -99.90      -99.90      -99.90      -99.90      -99.90      -99.90      -99.90      -99.90      -99.90      -99.90    
       -99.90      -99.90      -99.90      -99.90      -99.90      -99.90      -99.90      -99.90      -99.90      -99.90    
  37   -99.90      -99.90      -99.90      -99.90      -99.90      -99.90      -99.90      -99.90      -99.90      -99.90    
       -99.90      -99.90      -99.90      -99.90      -99.90      -99.90      -99.90      -99.90      -99.90      -99.90    
       -99.90      -99.90      -99.90      -99.90      -99.90      -99.90      -99.90      -99.90      -99.90      -99.90    
       -99.90      -99.90      -99.90      -99.90      -99.90      -99.90      -99.90      -99.90      -99.90      -99.90    
  38   -99.90      -99.90      -99.90      -99.90      -99.90      -99.90      -99.90      -99.90      -99.90      -99.90    
       -99.90      -99.90      -99.90      -99.90      -99.90      -99.90      -99.90      -99.90      -99.90      -99.90    
       -99.90      -99.90      -99.90      -99.90      -99.90      -99.90      -99.90      -99.90      -99.90      -99.90    
       -99.90      -99.90      -99.90      -99.90      -99.90      -99.90      -99.90      -99.90      -99.90      -99.90    
  39   -99.90      -99.90      -99.90      -99.90      -99.90      -99.90      -99.90      -99.90      -99.90      -99.90    
       -99.90      -99.90      -99.90      -99.90      -99.90      -99.90      -99.90      -99.90      -99.90      -99.90    
       -99.90      -99.90      -99.90      -99.90      -99.90      -99.90      -99.90      -99.90      -99.90      -99.90    
       -99.90      -99.90      -99.90      -99.90      -99.90      -99.90      -99.90      -99.90      -99.90      -99.90    
  40   -99.90      -99.90      -99.90      -99.90      -99.90      -99.90      -99.90      -99.90      -99.90      -99.90    
       -99.90      -99.90      -99.90      -99.90      -99.90      -99.90      -99.90      -99.90      -99.90      -99.90    
       -99.90      -99.90      -99.90      -99.90      -99.90      -99.90      -99.90      -99.90      -99.90      -99.90    
       -99.90      -99.90      -99.90      -99.90      -99.90      -99.90      -99.90      -99.90      -99.90      -99.90    
1
              HEAD IN LAYER   8 AT END OF TIME STEP  10 IN STRESS PERIOD    1
  ---------------------------------------------------------------------------

            1           2           3           4           5           6           7           8           9          10
           11          12          13          14          15          16          17          18          19          20
           21          22          23          24          25          26          27          28          29          30
           31          32          33          34          35          36          37          38          39          40
 ........................................................................................................................
   1    40.85       39.32       33.48      -99.90      -99.90      -99.90      -99.90      -99.90      -99.90      -99.90    
       -99.90      -99.90      -99.90      -99.90      -99.90      -99.90      -99.90      -99.90      -99.90      -99.90    
       -99.90      -99.90      -99.90      -99.90      -99.90      -99.90      -99.90      -99.90      -99.90      -99.90    
       -99.90      -99.90      -99.90      -99.90      -99.90      -99.90      -99.90      -99.90      -99.90      -99.90    
   2    39.32       37.89       32.46      -99.90      -99.90      -99.90      -99.90      -99.90      -99.90      -99.90    
       -99.90      -99.90      -99.90      -99.90      -99.90      -99.90      -99.90      -99.90      -99.90      -99.90    
       -99.90      -99.90      -99.90      -99.90      -99.90      -99.90      -99.90      -99.90      -99.90      -99.90    
       -99.90      -99.90      -99.90      -99.90      -99.90      -99.90      -99.90      -99.90      -99.90      -99.90    
   3    33.48       32.46       30.33      -99.90      -99.90      -99.90      -99.90      -99.90      -99.90      -99.90    
       -99.90      -99.90      -99.90      -99.90      -99.90      -99.90      -99.90      -99.90      -99.90      -99.90    
       -99.90      -99.90      -99.90      -99.90      -99.90      -99.90      -99.90      -99.90      -99.90      -99.90    
       -99.90      -99.90      -99.90      -99.90      -99.90      -99.90      -99.90      -99.90      -99.90      -99.90    
   4   -99.90      -99.90      -99.90      -99.90      -99.90      -99.90      -99.90      -99.90      -99.90      -99.90    
       -99.90      -99.90      -99.90      -99.90      -99.90      -99.90      -99.90      -99.90      -99.90      -99.90    
       -99.90      -99.90      -99.90      -99.90      -99.90      -99.90      -99.90      -99.90      -99.90      -99.90    
       -99.90      -99.90      -99.90      -99.90      -99.90      -99.90      -99.90      -99.90      -99.90      -99.90    
   5   -99.90      -99.90      -99.90      -99.90      -99.90      -99.90      -99.90      -99.90      -99.90      -99.90    
       -99.90      -99.90      -99.90      -99.90      -99.90      -99.90      -99.90      -99.90      -99.90      -99.90    
       -99.90      -99.90      -99.90      -99.90      -99.90      -99.90      -99.90      -99.90      -99.90      -99.90    
       -99.90      -99.90      -99.90      -99.90      -99.90      -99.90      -99.90      -99.90      -99.90      -99.90    
   6   -99.90      -99.90      -99.90      -99.90      -99.90      -99.90      -99.90      -99.90      -99.90      -99.90    
       -99.90      -99.90      -99.90      -99.90      -99.90      -99.90      -99.90      -99.90      -99.90      -99.90    
       -99.90      -99.90      -99.90      -99.90      -99.90      -99.90      -99.90      -99.90      -99.90      -99.90    
       -99.90      -99.90      -99.90      -99.90      -99.90      -99.90      -99.90      -99.90      -99.90      -99.90    
   7   -99.90      -99.90      -99.90      -99.90      -99.90      -99.90      -99.90      -99.90      -99.90      -99.90    
       -99.90      -99.90      -99.90      -99.90      -99.90      -99.90      -99.90      -99.90      -99.90      -99.90    
       -99.90      -99.90      -99.90      -99.90      -99.90      -99.90      -99.90      -99.90      -99.90      -99.90    
       -99.90      -99.90      -99.90      -99.90      -99.90      -99.90      -99.90      -99.90      -99.90      -99.90    
   8   -99.90      -99.90      -99.90      -99.90      -99.90      -99.90      -99.90      -99.90      -99.90      -99.90    
       -99.90      -99.90      -99.90      -99.90      -99.90      -99.90      -99.90      -99.90      -99.90      -99.90    
       -99.90      -99.90      -99.90      -99.90      -99.90      -99.90      -99.90      -99.90      -99.90      -99.90    
       -99.90      -99.90      -99.90      -99.90      -99.90      -99.90      -99.90      -99.90      -99.90      -99.90    
   9   -99.90      -99.90      -99.90      -99.90      -99.90      -99.90      -99.90      -99.90      -99.90      -99.90    
       -99.90      -99.90      -99.90      -99.90      -99.90      -99.90      -99.90      -99.90      -99.90      -99.90    
       -99.90      -99.90      -99.90      -99.90      -99.90      -99.90      -99.90      -99.90      -99.90      -99.90    
       -99.90      -99.90      -99.90      -99.90      -99.90      -99.90      -99.90      -99.90      -99.90      -99.90    
  10   -99.90      -99.90      -99.90      -99.90      -99.90      -99.90      -99.90      -99.90      -99.90      -99.90    
       -99.90      -99.90      -99.90      -99.90      -99.90      -99.90      -99.90      -99.90      -99.90      -99.90    
       -99.90      -99.90      -99.90      -99.90      -99.90      -99.90      -99.90      -99.90      -99.90      -99.90    
       -99.90      -99.90      -99.90      -99.90      -99.90      -99.90      -99.90      -99.90      -99.90      -99.90    
  11   -99.90      -99.90      -99.90      -99.90      -99.90      -99.90      -99.90      -99.90      -99.90      -99.90    
       -99.90      -99.90      -99.90      -99.90      -99.90      -99.90      -99.90      -99.90      -99.90      -99.90    
       -99.90      -99.90      -99.90      -99.90      -99.90      -99.90      -99.90      -99.90      -99.90      -99.90    
       -99.90      -99.90      -99.90      -99.90      -99.90      -99.90      -99.90      -99.90      -99.90      -99.90    
  12   -99.90      -99.90      -99.90      -99.90      -99.90      -99.90      -99.90      -99.90      -99.90      -99.90    
       -99.90      -99.90      -99.90      -99.90      -99.90      -99.90      -99.90      -99.90      -99.90      -99.90    
       -99.90      -99.90      -99.90      -99.90      -99.90      -99.90      -99.90      -99.90      -99.90      -99.90    
       -99.90      -99.90      -99.90      -99.90      -99.90      -99.90      -99.90      -99.90      -99.90      -99.90    
  13   -99.90      -99.90      -99.90      -99.90      -99.90      -99.90      -99.90      -99.90      -99.90      -99.90    
       -99.90      -99.90      -99.90      -99.90      -99.90      -99.90      -99.90      -99.90      -99.90      -99.90    
       -99.90      -99.90      -99.90      -99.90      -99.90      -99.90      -99.90      -99.90      -99.90      -99.90    
       -99.90      -99.90      -99.90      -99.90      -99.90      -99.90      -99.90      -99.90      -99.90      -99.90    
  14   -99.90      -99.90      -99.90      -99.90      -99.90      -99.90      -99.90      -99.90      -99.90      -99.90    
       -99.90      -99.90      -99.90      -99.90      -99.90      -99.90      -99.90      -99.90      -99.90      -99.90    
       -99.90      -99.90      -99.90      -99.90      -99.90      -99.90      -99.90      -99.90      -99.90      -99.90    
       -99.90      -99.90      -99.90      -99.90      -99.90      -99.90      -99.90      -99.90      -99.90      -99.90    
  15   -99.90      -99.90      -99.90      -99.90      -99.90      -99.90      -99.90      -99.90      -99.90      -99.90    
       -99.90      -99.90      -99.90      -99.90      -99.90      -99.90      -99.90      -99.90      -99.90      -99.90    
       -99.90      -99.90      -99.90      -99.90      -99.90      -99.90      -99.90      -99.90      -99.90      -99.90    
       -99.90      -99.90      -99.90      -99.90      -99.90      -99.90      -99.90      -99.90      -99.90      -99.90    
  16   -99.90      -99.90      -99.90      -99.90      -99.90      -99.90      -99.90      -99.90      -99.90      -99.90    
       -99.90      -99.90      -99.90      -99.90      -99.90      -99.90      -99.90      -99.90      -99.90      -99.90    
       -99.90      -99.90      -99.90      -99.90      -99.90      -99.90      -99.90      -99.90      -99.90      -99.90    
       -99.90      -99.90      -99.90      -99.90      -99.90      -99.90      -99.90      -99.90      -99.90      -99.90    
  17   -99.90      -99.90      -99.90      -99.90      -99.90      -99.90      -99.90      -99.90      -99.90      -99.90    
       -99.90      -99.90      -99.90      -99.90      -99.90      -99.90      -99.90      -99.90      -99.90      -99.90    
       -99.90      -99.90      -99.90      -99.90      -99.90      -99.90      -99.90      -99.90      -99.90      -99.90    
       -99.90      -99.90      -99.90      -99.90      -99.90      -99.90      -99.90      -99.90      -99.90      -99.90    
  18   -99.90      -99.90      -99.90      -99.90      -99.90      -99.90      -99.90      -99.90      -99.90      -99.90    
       -99.90      -99.90      -99.90      -99.90      -99.90      -99.90      -99.90      -99.90      -99.90      -99.90    
       -99.90      -99.90      -99.90      -99.90      -99.90      -99.90      -99.90      -99.90      -99.90      -99.90    
       -99.90      -99.90      -99.90      -99.90      -99.90      -99.90      -99.90      -99.90      -99.90      -99.90    
  19   -99.90      -99.90      -99.90      -99.90      -99.90      -99.90      -99.90      -99.90      -99.90      -99.90    
       -99.90      -99.90      -99.90      -99.90      -99.90      -99.90      -99.90      -99.90      -99.90      -99.90    
       -99.90      -99.90      -99.90      -99.90      -99.90      -99.90      -99.90      -99.90      -99.90      -99.90    
       -99.90      -99.90      -99.90      -99.90      -99.90      -99.90      -99.90      -99.90      -99.90      -99.90    
  20   -99.90      -99.90      -99.90      -99.90      -99.90      -99.90      -99.90      -99.90      -99.90      -99.90    
       -99.90      -99.90      -99.90      -99.90      -99.90      -99.90      -99.90      -99.90      -99.90      -99.90    
       -99.90      -99.90      -99.90      -99.90      -99.90      -99.90      -99.90      -99.90      -99.90      -99.90    
       -99.90      -99.90      -99.90      -99.90      -99.90      -99.90      -99.90      -99.90      -99.90      -99.90    
  21   -99.90      -99.90      -99.90      -99.90      -99.90      -99.90      -99.90      -99.90      -99.90      -99.90    
       -99.90      -99.90      -99.90      -99.90      -99.90      -99.90      -99.90      -99.90      -99.90      -99.90    
       -99.90      -99.90      -99.90      -99.90      -99.90      -99.90      -99.90      -99.90      -99.90      -99.90    
       -99.90      -99.90      -99.90      -99.90      -99.90      -99.90      -99.90      -99.90      -99.90      -99.90    
  22   -99.90      -99.90      -99.90      -99.90      -99.90      -99.90      -99.90      -99.90      -99.90      -99.90    
       -99.90      -99.90      -99.90      -99.90      -99.90      -99.90      -99.90      -99.90      -99.90      -99.90    
       -99.90      -99.90      -99.90      -99.90      -99.90      -99.90      -99.90      -99.90      -99.90      -99.90    
       -99.90      -99.90      -99.90      -99.90      -99.90      -99.90      -99.90      -99.90      -99.90      -99.90    
  23   -99.90      -99.90      -99.90      -99.90      -99.90      -99.90      -99.90      -99.90      -99.90      -99.90    
       -99.90      -99.90      -99.90      -99.90      -99.90      -99.90      -99.90      -99.90      -99.90      -99.90    
       -99.90      -99.90      -99.90      -99.90      -99.90      -99.90      -99.90      -99.90      -99.90      -99.90    
       -99.90      -99.90      -99.90      -99.90      -99.90      -99.90      -99.90      -99.90      -99.90      -99.90    
  24   -99.90      -99.90      -99.90      -99.90      -99.90      -99.90      -99.90      -99.90      -99.90      -99.90    
       -99.90      -99.90      -99.90      -99.90      -99.90      -99.90      -99.90      -99.90      -99.90      -99.90    
       -99.90      -99.90      -99.90      -99.90      -99.90      -99.90      -99.90      -99.90      -99.90      -99.90    
       -99.90      -99.90      -99.90      -99.90      -99.90      -99.90      -99.90      -99.90      -99.90      -99.90    
  25   -99.90      -99.90      -99.90      -99.90      -99.90      -99.90      -99.90      -99.90      -99.90      -99.90    
       -99.90      -99.90      -99.90      -99.90      -99.90      -99.90      -99.90      -99.90      -99.90      -99.90    
       -99.90      -99.90      -99.90      -99.90      -99.90      -99.90      -99.90      -99.90      -99.90      -99.90    
       -99.90      -99.90      -99.90      -99.90      -99.90      -99.90      -99.90      -99.90      -99.90      -99.90    
  26   -99.90      -99.90      -99.90      -99.90      -99.90      -99.90      -99.90      -99.90      -99.90      -99.90    
       -99.90      -99.90      -99.90      -99.90      -99.90      -99.90      -99.90      -99.90      -99.90      -99.90    
       -99.90      -99.90      -99.90      -99.90      -99.90      -99.90      -99.90      -99.90      -99.90      -99.90    
       -99.90      -99.90      -99.90      -99.90      -99.90      -99.90      -99.90      -99.90      -99.90      -99.90    
  27   -99.90      -99.90      -99.90      -99.90      -99.90      -99.90      -99.90      -99.90      -99.90      -99.90    
       -99.90      -99.90      -99.90      -99.90      -99.90      -99.90      -99.90      -99.90      -99.90      -99.90    
       -99.90      -99.90      -99.90      -99.90      -99.90      -99.90      -99.90      -99.90      -99.90      -99.90    
       -99.90      -99.90      -99.90      -99.90      -99.90      -99.90      -99.90      -99.90      -99.90      -99.90    
  28   -99.90      -99.90      -99.90      -99.90      -99.90      -99.90      -99.90      -99.90      -99.90      -99.90    
       -99.90      -99.90      -99.90      -99.90      -99.90      -99.90      -99.90      -99.90      -99.90      -99.90    
       -99.90      -99.90      -99.90      -99.90      -99.90      -99.90      -99.90      -99.90      -99.90      -99.90    
       -99.90      -99.90      -99.90      -99.90      -99.90      -99.90      -99.90      -99.90      -99.90      -99.90    
  29   -99.90      -99.90      -99.90      -99.90      -99.90      -99.90      -99.90      -99.90      -99.90      -99.90    
       -99.90      -99.90      -99.90      -99.90      -99.90      -99.90      -99.90      -99.90      -99.90      -99.90    
       -99.90      -99.90      -99.90      -99.90      -99.90      -99.90      -99.90      -99.90      -99.90      -99.90    
       -99.90      -99.90      -99.90      -99.90      -99.90      -99.90      -99.90      -99.90      -99.90      -99.90    
  30   -99.90      -99.90      -99.90      -99.90      -99.90      -99.90      -99.90      -99.90      -99.90      -99.90    
       -99.90      -99.90      -99.90      -99.90      -99.90      -99.90      -99.90      -99.90      -99.90      -99.90    
       -99.90      -99.90      -99.90      -99.90      -99.90      -99.90      -99.90      -99.90      -99.90      -99.90    
       -99.90      -99.90      -99.90      -99.90      -99.90      -99.90      -99.90      -99.90      -99.90      -99.90    
  31   -99.90      -99.90      -99.90      -99.90      -99.90      -99.90      -99.90      -99.90      -99.90      -99.90    
       -99.90      -99.90      -99.90      -99.90      -99.90      -99.90      -99.90      -99.90      -99.90      -99.90    
       -99.90      -99.90      -99.90      -99.90      -99.90      -99.90      -99.90      -99.90      -99.90      -99.90    
       -99.90      -99.90      -99.90      -99.90      -99.90      -99.90      -99.90      -99.90      -99.90      -99.90    
  32   -99.90      -99.90      -99.90      -99.90      -99.90      -99.90      -99.90      -99.90      -99.90      -99.90    
       -99.90      -99.90      -99.90      -99.90      -99.90      -99.90      -99.90      -99.90      -99.90      -99.90    
       -99.90      -99.90      -99.90      -99.90      -99.90      -99.90      -99.90      -99.90      -99.90      -99.90    
       -99.90      -99.90      -99.90      -99.90      -99.90      -99.90      -99.90      -99.90      -99.90      -99.90    
  33   -99.90      -99.90      -99.90      -99.90      -99.90      -99.90      -99.90      -99.90      -99.90      -99.90    
       -99.90      -99.90      -99.90      -99.90      -99.90      -99.90      -99.90      -99.90      -99.90      -99.90    
       -99.90      -99.90      -99.90      -99.90      -99.90      -99.90      -99.90      -99.90      -99.90      -99.90    
       -99.90      -99.90      -99.90      -99.90      -99.90      -99.90      -99.90      -99.90      -99.90      -99.90    
  34   -99.90      -99.90      -99.90      -99.90      -99.90      -99.90      -99.90      -99.90      -99.90      -99.90    
       -99.90      -99.90      -99.90      -99.90      -99.90      -99.90      -99.90      -99.90      -99.90      -99.90    
       -99.90      -99.90      -99.90      -99.90      -99.90      -99.90      -99.90      -99.90      -99.90      -99.90    
       -99.90      -99.90      -99.90      -99.90      -99.90      -99.90      -99.90      -99.90      -99.90      -99.90    
  35   -99.90      -99.90      -99.90      -99.90      -99.90      -99.90      -99.90      -99.90      -99.90      -99.90    
       -99.90      -99.90      -99.90      -99.90      -99.90      -99.90      -99.90      -99.90      -99.90      -99.90    
       -99.90      -99.90      -99.90      -99.90      -99.90      -99.90      -99.90      -99.90      -99.90      -99.90    
       -99.90      -99.90      -99.90      -99.90      -99.90      -99.90      -99.90      -99.90      -99.90      -99.90    
  36   -99.90      -99.90      -99.90      -99.90      -99.90      -99.90      -99.90      -99.90      -99.90      -99.90    
       -99.90      -99.90      -99.90      -99.90      -99.90      -99.90      -99.90      -99.90      -99.90      -99.90    
       -99.90      -99.90      -99.90      -99.90      -99.90      -99.90      -99.90      -99.90      -99.90      -99.90    
       -99.90      -99.90      -99.90      -99.90      -99.90      -99.90      -99.90      -99.90      -99.90      -99.90    
  37   -99.90      -99.90      -99.90      -99.90      -99.90      -99.90      -99.90      -99.90      -99.90      -99.90    
       -99.90      -99.90      -99.90      -99.90      -99.90      -99.90      -99.90      -99.90      -99.90      -99.90    
       -99.90      -99.90      -99.90      -99.90      -99.90      -99.90      -99.90      -99.90      -99.90      -99.90    
       -99.90      -99.90      -99.90      -99.90      -99.90      -99.90      -99.90      -99.90      -99.90      -99.90    
  38   -99.90      -99.90      -99.90      -99.90      -99.90      -99.90      -99.90      -99.90      -99.90      -99.90    
       -99.90      -99.90      -99.90      -99.90      -99.90      -99.90      -99.90      -99.90      -99.90      -99.90    
       -99.90      -99.90      -99.90      -99.90      -99.90      -99.90      -99.90      -99.90      -99.90      -99.90    
       -99.90      -99.90      -99.90      -99.90      -99.90      -99.90      -99.90      -99.90      -99.90      -99.90    
  39   -99.90      -99.90      -99.90      -99.90      -99.90      -99.90      -99.90      -99.90      -99.90      -99.90    
       -99.90      -99.90      -99.90      -99.90      -99.90      -99.90      -99.90      -99.90      -99.90      -99.90    
       -99.90      -99.90      -99.90      -99.90      -99.90      -99.90      -99.90      -99.90      -99.90      -99.90    
       -99.90      -99.90      -99.90      -99.90      -99.90      -99.90      -99.90      -99.90      -99.90      -99.90    
  40   -99.90      -99.90      -99.90      -99.90      -99.90      -99.90      -99.90      -99.90      -99.90      -99.90    
       -99.90      -99.90      -99.90      -99.90      -99.90      -99.90      -99.90      -99.90      -99.90      -99.90    
       -99.90      -99.90      -99.90      -99.90      -99.90      -99.90      -99.90      -99.90      -99.90      -99.90    
       -99.90      -99.90      -99.90      -99.90      -99.90      -99.90      -99.90      -99.90      -99.90      -99.90    
1
              HEAD IN LAYER   9 AT END OF TIME STEP  10 IN STRESS PERIOD    1
  ---------------------------------------------------------------------------

            1           2           3           4           5           6           7           8           9          10
           11          12          13          14          15          16          17          18          19          20
           21          22          23          24          25          26          27          28          29          30
           31          32          33          34          35          36          37          38          39          40
 ........................................................................................................................
   1    40.20       38.57       33.49       30.35       28.21       26.89       26.09       25.62       25.34       25.19    
        25.10       25.06       25.03       25.02       25.01       25.01      -99.90      -99.90      -99.90      -99.90    
       -99.90      -99.90      -99.90      -99.90      -99.90      -99.90      -99.90      -99.90      -99.90      -99.90    
       -99.90      -99.90      -99.90      -99.90      -99.90      -99.90      -99.90      -99.90      -99.90      -99.90    
   2    38.57       37.07       32.46       29.66       27.87       26.72       26.00       25.57       25.32       25.18    
        25.10       25.05       25.03       25.02       25.01       25.01      -99.90      -99.90      -99.90      -99.90    
       -99.90      -99.90      -99.90      -99.90      -99.90      -99.90      -99.90      -99.90      -99.90      -99.90    
       -99.90      -99.90      -99.90      -99.90      -99.90      -99.90      -99.90      -99.90      -99.90      -99.90    
   3    33.49       32.46       30.38       28.62       27.31       26.41       25.84       25.49       25.28       25.15    
        25.09       25.05       25.03       25.01       25.01      -99.90      -99.90      -99.90      -99.90      -99.90    
       -99.90      -99.90      -99.90      -99.90      -99.90      -99.90      -99.90      -99.90      -99.90      -99.90    
       -99.90      -99.90      -99.90      -99.90      -99.90      -99.90      -99.90      -99.90      -99.90      -99.90    
   4    30.35       29.66       28.62       27.56       26.70       26.08       25.66       25.39       25.22       25.13    
        25.07       25.04       25.02       25.01       25.01      -99.90      -99.90      -99.90      -99.90      -99.90    
       -99.90      -99.90      -99.90      -99.90      -99.90      -99.90      -99.90      -99.90      -99.90      -99.90    
       -99.90      -99.90      -99.90      -99.90      -99.90      -99.90      -99.90      -99.90      -99.90      -99.90    
   5    28.21       27.87       27.31       26.70       26.17       25.76       25.48       25.29       25.17       25.10    
        25.06       25.03       25.02       25.01       25.01      -99.90      -99.90      -99.90      -99.90      -99.90    
       -99.90      -99.90      -99.90      -99.90      -99.90      -99.90      -99.90      -99.90      -99.90      -99.90    
       -99.90      -99.90      -99.90      -99.90      -99.90      -99.90      -99.90      -99.90      -99.90      -99.90    
   6    26.89       26.72       26.41       26.08       25.76       25.52       25.33       25.21       25.13       25.07    
        25.04       25.02       25.01       25.01      -99.90      -99.90      -99.90      -99.90      -99.90      -99.90    
       -99.90      -99.90      -99.90      -99.90      -99.90      -99.90      -99.90      -99.90      -99.90      -99.90    
       -99.90      -99.90      -99.90      -99.90      -99.90      -99.90      -99.90      -99.90      -99.90      -99.90    
   7    26.09       26.00       25.84       25.66       25.48       25.33       25.22       25.14       25.09       25.05    
        25.03       25.02       25.01       25.01      -99.90      -99.90      -99.90      -99.90      -99.90      -99.90    
       -99.90      -99.90      -99.90      -99.90      -99.90      -99.90      -99.90      -99.90      -99.90      -99.90    
       -99.90      -99.90      -99.90      -99.90      -99.90      -99.90      -99.90      -99.90      -99.90      -99.90    
   8    25.62       25.57       25.49       25.39       25.29       25.21       25.14       25.09       25.06       25.04    
        25.02       25.01       25.01      -99.90      -99.90      -99.90      -99.90      -99.90      -99.90      -99.90    
       -99.90      -99.90      -99.90      -99.90      -99.90      -99.90      -99.90      -99.90      -99.90      -99.90    
       -99.90      -99.90      -99.90      -99.90      -99.90      -99.90      -99.90      -99.90      -99.90      -99.90    
   9    25.34       25.32       25.28       25.22       25.17       25.13       25.09       25.06       25.04       25.02    
        25.02       25.01       25.01      -99.90      -99.90      -99.90      -99.90      -99.90      -99.90      -99.90    
       -99.90      -99.90      -99.90      -99.90      -99.90      -99.90      -99.90      -99.90      -99.90      -99.90    
       -99.90      -99.90      -99.90      -99.90      -99.90      -99.90      -99.90      -99.90      -99.90      -99.90    
  10    25.19       25.18       25.15       25.13       25.10       25.07       25.05       25.04       25.02       25.02    
        25.01       25.01      -99.90      -99.90      -99.90      -99.90      -99.90      -99.90      -99.90      -99.90    
       -99.90      -99.90      -99.90      -99.90      -99.90      -99.90      -99.90      -99.90      -99.90      -99.90    
       -99.90      -99.90      -99.90      -99.90      -99.90      -99.90      -99.90      -99.90      -99.90      -99.90    
  11    25.10       25.10       25.09       25.07       25.06       25.04       25.03       25.02       25.02       25.01    
        25.01      -99.90      -99.90      -99.90      -99.90      -99.90      -99.90      -99.90      -99.90      -99.90    
       -99.90      -99.90      -99.90      -99.90      -99.90      -99.90      -99.90      -99.90      -99.90      -99.90    
       -99.90      -99.90      -99.90      -99.90      -99.90      -99.90      -99.90      -99.90      -99.90      -99.90    
  12    25.06       25.05       25.05       25.04       25.03       25.02       25.02       25.01       25.01       25.01    
       -99.90      -99.90      -99.90      -99.90      -99.90      -99.90      -99.90      -99.90      -99.90      -99.90    
       -99.90      -99.90      -99.90      -99.90      -99.90      -99.90      -99.90      -99.90      -99.90      -99.90    
       -99.90      -99.90      -99.90      -99.90      -99.90      -99.90      -99.90      -99.90      -99.90      -99.90    
  13    25.03       25.03       25.03       25.02       25.02       25.01       25.01       25.01       25.01      -99.90    
       -99.90      -99.90      -99.90      -99.90      -99.90      -99.90      -99.90      -99.90      -99.90      -99.90    
       -99.90      -99.90      -99.90      -99.90      -99.90      -99.90      -99.90      -99.90      -99.90      -99.90    
       -99.90      -99.90      -99.90      -99.90      -99.90      -99.90      -99.90      -99.90      -99.90      -99.90    
  14    25.02       25.02       25.01       25.01       25.01       25.01       25.01      -99.90      -99.90      -99.90    
       -99.90      -99.90      -99.90      -99.90      -99.90      -99.90      -99.90      -99.90      -99.90      -99.90    
       -99.90      -99.90      -99.90      -99.90      -99.90      -99.90      -99.90      -99.90      -99.90      -99.90    
       -99.90      -99.90      -99.90      -99.90      -99.90      -99.90      -99.90      -99.90      -99.90      -99.90    
  15    25.01       25.01       25.01       25.01       25.01      -99.90      -99.90      -99.90      -99.90      -99.90    
       -99.90      -99.90      -99.90      -99.90      -99.90      -99.90      -99.90      -99.90      -99.90      -99.90    
       -99.90      -99.90      -99.90      -99.90      -99.90      -99.90      -99.90      -99.90      -99.90      -99.90    
       -99.90      -99.90      -99.90      -99.90      -99.90      -99.90      -99.90      -99.90      -99.90      -99.90    
  16    25.01       25.01      -99.90      -99.90      -99.90      -99.90      -99.90      -99.90      -99.90      -99.90    
       -99.90      -99.90      -99.90      -99.90      -99.90      -99.90      -99.90      -99.90      -99.90      -99.90    
       -99.90      -99.90      -99.90      -99.90      -99.90      -99.90      -99.90      -99.90      -99.90      -99.90    
       -99.90      -99.90      -99.90      -99.90      -99.90      -99.90      -99.90      -99.90      -99.90      -99.90    
  17   -99.90      -99.90      -99.90      -99.90      -99.90      -99.90      -99.90      -99.90      -99.90      -99.90    
       -99.90      -99.90      -99.90      -99.90      -99.90      -99.90      -99.90      -99.90      -99.90      -99.90    
       -99.90      -99.90      -99.90      -99.90      -99.90      -99.90      -99.90      -99.90      -99.90      -99.90    
       -99.90      -99.90      -99.90      -99.90      -99.90      -99.90      -99.90      -99.90      -99.90      -99.90    
  18   -99.90      -99.90      -99.90      -99.90      -99.90      -99.90      -99.90      -99.90      -99.90      -99.90    
       -99.90      -99.90      -99.90      -99.90      -99.90      -99.90      -99.90      -99.90      -99.90      -99.90    
       -99.90      -99.90      -99.90      -99.90      -99.90      -99.90      -99.90      -99.90      -99.90      -99.90    
       -99.90      -99.90      -99.90      -99.90      -99.90      -99.90      -99.90      -99.90      -99.90      -99.90    
  19   -99.90      -99.90      -99.90      -99.90      -99.90      -99.90      -99.90      -99.90      -99.90      -99.90    
       -99.90      -99.90      -99.90      -99.90      -99.90      -99.90      -99.90      -99.90      -99.90      -99.90    
       -99.90      -99.90      -99.90      -99.90      -99.90      -99.90      -99.90      -99.90      -99.90      -99.90    
       -99.90      -99.90      -99.90      -99.90      -99.90      -99.90      -99.90      -99.90      -99.90      -99.90    
  20   -99.90      -99.90      -99.90      -99.90      -99.90      -99.90      -99.90      -99.90      -99.90      -99.90    
       -99.90      -99.90      -99.90      -99.90      -99.90      -99.90      -99.90      -99.90      -99.90      -99.90    
       -99.90      -99.90      -99.90      -99.90      -99.90      -99.90      -99.90      -99.90      -99.90      -99.90    
       -99.90      -99.90      -99.90      -99.90      -99.90      -99.90      -99.90      -99.90      -99.90      -99.90    
  21   -99.90      -99.90      -99.90      -99.90      -99.90      -99.90      -99.90      -99.90      -99.90      -99.90    
       -99.90      -99.90      -99.90      -99.90      -99.90      -99.90      -99.90      -99.90      -99.90      -99.90    
       -99.90      -99.90      -99.90      -99.90      -99.90      -99.90      -99.90      -99.90      -99.90      -99.90    
       -99.90      -99.90      -99.90      -99.90      -99.90      -99.90      -99.90      -99.90      -99.90      -99.90    
  22   -99.90      -99.90      -99.90      -99.90      -99.90      -99.90      -99.90      -99.90      -99.90      -99.90    
       -99.90      -99.90      -99.90      -99.90      -99.90      -99.90      -99.90      -99.90      -99.90      -99.90    
       -99.90      -99.90      -99.90      -99.90      -99.90      -99.90      -99.90      -99.90      -99.90      -99.90    
       -99.90      -99.90      -99.90      -99.90      -99.90      -99.90      -99.90      -99.90      -99.90      -99.90    
  23   -99.90      -99.90      -99.90      -99.90      -99.90      -99.90      -99.90      -99.90      -99.90      -99.90    
       -99.90      -99.90      -99.90      -99.90      -99.90      -99.90      -99.90      -99.90      -99.90      -99.90    
       -99.90      -99.90      -99.90      -99.90      -99.90      -99.90      -99.90      -99.90      -99.90      -99.90    
       -99.90      -99.90      -99.90      -99.90      -99.90      -99.90      -99.90      -99.90      -99.90      -99.90    
  24   -99.90      -99.90      -99.90      -99.90      -99.90      -99.90      -99.90      -99.90      -99.90      -99.90    
       -99.90      -99.90      -99.90      -99.90      -99.90      -99.90      -99.90      -99.90      -99.90      -99.90    
       -99.90      -99.90      -99.90      -99.90      -99.90      -99.90      -99.90      -99.90      -99.90      -99.90    
       -99.90      -99.90      -99.90      -99.90      -99.90      -99.90      -99.90      -99.90      -99.90      -99.90    
  25   -99.90      -99.90      -99.90      -99.90      -99.90      -99.90      -99.90      -99.90      -99.90      -99.90    
       -99.90      -99.90      -99.90      -99.90      -99.90      -99.90      -99.90      -99.90      -99.90      -99.90    
       -99.90      -99.90      -99.90      -99.90      -99.90      -99.90      -99.90      -99.90      -99.90      -99.90    
       -99.90      -99.90      -99.90      -99.90      -99.90      -99.90      -99.90      -99.90      -99.90      -99.90    
  26   -99.90      -99.90      -99.90      -99.90      -99.90      -99.90      -99.90      -99.90      -99.90      -99.90    
       -99.90      -99.90      -99.90      -99.90      -99.90      -99.90      -99.90      -99.90      -99.90      -99.90    
       -99.90      -99.90      -99.90      -99.90      -99.90      -99.90      -99.90      -99.90      -99.90      -99.90    
       -99.90      -99.90      -99.90      -99.90      -99.90      -99.90      -99.90      -99.90      -99.90      -99.90    
  27   -99.90      -99.90      -99.90      -99.90      -99.90      -99.90      -99.90      -99.90      -99.90      -99.90    
       -99.90      -99.90      -99.90      -99.90      -99.90      -99.90      -99.90      -99.90      -99.90      -99.90    
       -99.90      -99.90      -99.90      -99.90      -99.90      -99.90      -99.90      -99.90      -99.90      -99.90    
       -99.90      -99.90      -99.90      -99.90      -99.90      -99.90      -99.90      -99.90      -99.90      -99.90    
  28   -99.90      -99.90      -99.90      -99.90      -99.90      -99.90      -99.90      -99.90      -99.90      -99.90    
       -99.90      -99.90      -99.90      -99.90      -99.90      -99.90      -99.90      -99.90      -99.90      -99.90    
       -99.90      -99.90      -99.90      -99.90      -99.90      -99.90      -99.90      -99.90      -99.90      -99.90    
       -99.90      -99.90      -99.90      -99.90      -99.90      -99.90      -99.90      -99.90      -99.90      -99.90    
  29   -99.90      -99.90      -99.90      -99.90      -99.90      -99.90      -99.90      -99.90      -99.90      -99.90    
       -99.90      -99.90      -99.90      -99.90      -99.90      -99.90      -99.90      -99.90      -99.90      -99.90    
       -99.90      -99.90      -99.90      -99.90      -99.90      -99.90      -99.90      -99.90      -99.90      -99.90    
       -99.90      -99.90      -99.90      -99.90      -99.90      -99.90      -99.90      -99.90      -99.90      -99.90    
  30   -99.90      -99.90      -99.90      -99.90      -99.90      -99.90      -99.90      -99.90      -99.90      -99.90    
       -99.90      -99.90      -99.90      -99.90      -99.90      -99.90      -99.90      -99.90      -99.90      -99.90    
       -99.90      -99.90      -99.90      -99.90      -99.90      -99.90      -99.90      -99.90      -99.90      -99.90    
       -99.90      -99.90      -99.90      -99.90      -99.90      -99.90      -99.90      -99.90      -99.90      -99.90    
  31   -99.90      -99.90      -99.90      -99.90      -99.90      -99.90      -99.90      -99.90      -99.90      -99.90    
       -99.90      -99.90      -99.90      -99.90      -99.90      -99.90      -99.90      -99.90      -99.90      -99.90    
       -99.90      -99.90      -99.90      -99.90      -99.90      -99.90      -99.90      -99.90      -99.90      -99.90    
       -99.90      -99.90      -99.90      -99.90      -99.90      -99.90      -99.90      -99.90      -99.90      -99.90    
  32   -99.90      -99.90      -99.90      -99.90      -99.90      -99.90      -99.90      -99.90      -99.90      -99.90    
       -99.90      -99.90      -99.90      -99.90      -99.90      -99.90      -99.90      -99.90      -99.90      -99.90    
       -99.90      -99.90      -99.90      -99.90      -99.90      -99.90      -99.90      -99.90      -99.90      -99.90    
       -99.90      -99.90      -99.90      -99.90      -99.90      -99.90      -99.90      -99.90      -99.90      -99.90    
  33   -99.90      -99.90      -99.90      -99.90      -99.90      -99.90      -99.90      -99.90      -99.90      -99.90    
       -99.90      -99.90      -99.90      -99.90      -99.90      -99.90      -99.90      -99.90      -99.90      -99.90    
       -99.90      -99.90      -99.90      -99.90      -99.90      -99.90      -99.90      -99.90      -99.90      -99.90    
       -99.90      -99.90      -99.90      -99.90      -99.90      -99.90      -99.90      -99.90      -99.90      -99.90    
  34   -99.90      -99.90      -99.90      -99.90      -99.90      -99.90      -99.90      -99.90      -99.90      -99.90    
       -99.90      -99.90      -99.90      -99.90      -99.90      -99.90      -99.90      -99.90      -99.90      -99.90    
       -99.90      -99.90      -99.90      -99.90      -99.90      -99.90      -99.90      -99.90      -99.90      -99.90    
       -99.90      -99.90      -99.90      -99.90      -99.90      -99.90      -99.90      -99.90      -99.90      -99.90    
  35   -99.90      -99.90      -99.90      -99.90      -99.90      -99.90      -99.90      -99.90      -99.90      -99.90    
       -99.90      -99.90      -99.90      -99.90      -99.90      -99.90      -99.90      -99.90      -99.90      -99.90    
       -99.90      -99.90      -99.90      -99.90      -99.90      -99.90      -99.90      -99.90      -99.90      -99.90    
       -99.90      -99.90      -99.90      -99.90      -99.90      -99.90      -99.90      -99.90      -99.90      -99.90    
  36   -99.90      -99.90      -99.90      -99.90      -99.90      -99.90      -99.90      -99.90      -99.90      -99.90    
       -99.90      -99.90      -99.90      -99.90      -99.90      -99.90      -99.90      -99.90      -99.90      -99.90    
       -99.90      -99.90      -99.90      -99.90      -99.90      -99.90      -99.90      -99.90      -99.90      -99.90    
       -99.90      -99.90      -99.90      -99.90      -99.90      -99.90      -99.90      -99.90      -99.90      -99.90    
  37   -99.90      -99.90      -99.90      -99.90      -99.90      -99.90      -99.90      -99.90      -99.90      -99.90    
       -99.90      -99.90      -99.90      -99.90      -99.90      -99.90      -99.90      -99.90      -99.90      -99.90    
       -99.90      -99.90      -99.90      -99.90      -99.90      -99.90      -99.90      -99.90      -99.90      -99.90    
       -99.90      -99.90      -99.90      -99.90      -99.90      -99.90      -99.90      -99.90      -99.90      -99.90    
  38   -99.90      -99.90      -99.90      -99.90      -99.90      -99.90      -99.90      -99.90      -99.90      -99.90    
       -99.90      -99.90      -99.90      -99.90      -99.90      -99.90      -99.90      -99.90      -99.90      -99.90    
       -99.90      -99.90      -99.90      -99.90      -99.90      -99.90      -99.90      -99.90      -99.90      -99.90    
       -99.90      -99.90      -99.90      -99.90      -99.90      -99.90      -99.90      -99.90      -99.90      -99.90    
  39   -99.90      -99.90      -99.90      -99.90      -99.90      -99.90      -99.90      -99.90      -99.90      -99.90    
       -99.90      -99.90      -99.90      -99.90      -99.90      -99.90      -99.90      -99.90      -99.90      -99.90    
       -99.90      -99.90      -99.90      -99.90      -99.90      -99.90      -99.90      -99.90      -99.90      -99.90    
       -99.90      -99.90      -99.90      -99.90      -99.90      -99.90      -99.90      -99.90      -99.90      -99.90    
  40   -99.90      -99.90      -99.90      -99.90      -99.90      -99.90      -99.90      -99.90      -99.90      -99.90    
       -99.90      -99.90      -99.90      -99.90      -99.90      -99.90      -99.90      -99.90      -99.90      -99.90    
       -99.90      -99.90      -99.90      -99.90      -99.90      -99.90      -99.90      -99.90      -99.90      -99.90    
       -99.90      -99.90      -99.90      -99.90      -99.90      -99.90      -99.90      -99.90      -99.90      -99.90    
1
              HEAD IN LAYER  10 AT END OF TIME STEP  10 IN STRESS PERIOD    1
  ---------------------------------------------------------------------------

            1           2           3           4           5           6           7           8           9          10
           11          12          13          14          15          16          17          18          19          20
           21          22          23          24          25          26          27          28          29          30
           31          32          33          34          35          36          37          38          39          40
 ........................................................................................................................
   1    39.65       37.97       33.47       30.39       28.27       26.94       26.13       25.64       25.36       25.20    
        25.11       25.06       25.03       25.02       25.01       25.01       25.01       25.01       25.01       25.00    
        25.00       25.00       25.00       25.00       25.00       25.00       25.00       25.00       25.00       25.00    
        25.00       25.00       25.00       25.00       25.00       25.00       25.00       25.00       25.00       25.00    
   2    37.97       36.46       32.45       29.72       27.93       26.76       26.03       25.59       25.33       25.19    
        25.10       25.06       25.03       25.02       25.01       25.01       25.01       25.01       25.01       25.00    
        25.00       25.00       25.00       25.00       25.00       25.00       25.00       25.00       25.00       25.00    
        25.00       25.00       25.00       25.00       25.00       25.00       25.00       25.00       25.00       25.00    
   3    33.47       32.45       30.44       28.68       27.36       26.46       25.87       25.51       25.29       25.16    
        25.09       25.05       25.03       25.01       25.01       25.01       25.01       25.01       25.01       25.00    
        25.00       25.00       25.00       25.00       25.00       25.00       25.00       25.00       25.00       25.00    
        25.00       25.00       25.00       25.00       25.00       25.00       25.00       25.00       25.00       25.00    
   4    30.39       29.72       28.68       27.62       26.75       26.11       25.68       25.41       25.24       25.13    
        25.08       25.04       25.02       25.01       25.01       25.01       25.01       25.01       25.01       25.00    
        25.00       25.00       25.00       25.00       25.00       25.00       25.00       25.00       25.00       25.00    
        25.00       25.00       25.00       25.00       25.00       25.00       25.00       25.00       25.00       25.00    
   5    28.27       27.93       27.36       26.75       26.21       25.79       25.50       25.30       25.18       25.10    
        25.06       25.03       25.02       25.01       25.01       25.01       25.01       25.01       25.01       25.00    
        25.00       25.00       25.00       25.00       25.00       25.00       25.00       25.00       25.00       25.00    
        25.00       25.00       25.00       25.00       25.00       25.00       25.00       25.00       25.00       25.00    
   6    26.94       26.76       26.46       26.11       25.79       25.54       25.35       25.22       25.13       25.08    
        25.05       25.03       25.02       25.01       25.01       25.01       25.01       25.01       25.00       25.00    
        25.00       25.00       25.00       25.00       25.00       25.00       25.00       25.00       25.00       25.00    
        25.00       25.00       25.00       25.00       25.00       25.00       25.00       25.00       25.00       25.00    
   7    26.13       26.03       25.87       25.68       25.50       25.35       25.23       25.15       25.09       25.06    
        25.03       25.02       25.01       25.01       25.01       25.01       25.01       25.01       25.00       25.00    
        25.00       25.00       25.00       25.00       25.00       25.00       25.00       25.00       25.00       25.00    
        25.00       25.00       25.00       25.00       25.00       25.00       25.00       25.00       25.00       25.00    
   8    25.64       25.59       25.51       25.41       25.30       25.22       25.15       25.10       25.06       25.04    
        25.02       25.01       25.01       25.01       25.01       25.01       25.01       25.01       25.00       25.00    
        25.00       25.00       25.00       25.00       25.00       25.00       25.00       25.00       25.00       25.00    
        25.00       25.00       25.00       25.00       25.00       25.00       25.00       25.00       25.00       25.00    
   9    25.36       25.33       25.29       25.24       25.18       25.13       25.09       25.06       25.04       25.03    
        25.02       25.01       25.01       25.01       25.01       25.01       25.01       25.00       25.00       25.00    
        25.00       25.00       25.00       25.00       25.00       25.00       25.00       25.00       25.00       25.00    
        25.00       25.00       25.00       25.00       25.00       25.00       25.00       25.00       25.00       25.00    
  10    25.20       25.19       25.16       25.13       25.10       25.08       25.06       25.04       25.03       25.02    
        25.01       25.01       25.01       25.01       25.01       25.01       25.01       25.00       25.00       25.00    
        25.00       25.00       25.00       25.00       25.00       25.00       25.00       25.00       25.00       25.00    
        25.00       25.00       25.00       25.00       25.00       25.00       25.00       25.00       25.00       25.00    
  11    25.11       25.10       25.09       25.08       25.06       25.05       25.03       25.02       25.02       25.01    
        25.01       25.01       25.01       25.01       25.01       25.01       25.00       25.00       25.00       25.00    
        25.00       25.00       25.00       25.00       25.00       25.00       25.00       25.00       25.00       25.00    
        25.00       25.00       25.00       25.00       25.00       25.00       25.00       25.00       25.00       25.00    
  12    25.06       25.06       25.05       25.04       25.03       25.03       25.02       25.01       25.01       25.01    
        25.01       25.01       25.01       25.01       25.01       25.01       25.00       25.00       25.00       25.00    
        25.00       25.00       25.00       25.00       25.00       25.00       25.00       25.00       25.00       25.00    
        25.00       25.00       25.00       25.00       25.00       25.00       25.00       25.00       25.00       25.00    
  13    25.03       25.03       25.03       25.02       25.02       25.02       25.01       25.01       25.01       25.01    
        25.01       25.01       25.01       25.01       25.01       25.00       25.00       25.00       25.00       25.00    
        25.00       25.00       25.00       25.00       25.00       25.00       25.00       25.00       25.00       25.00    
        25.00       25.00       25.00       25.00       25.00       25.00       25.00       25.00       25.00       25.00    
  14    25.02       25.02       25.01       25.01       25.01       25.01       25.01       25.01       25.01       25.01    
        25.01       25.01       25.01       25.01       25.00       25.00       25.00       25.00       25.00       25.00    
        25.00       25.00       25.00       25.00       25.00       25.00       25.00       25.00       25.00       25.00    
        25.00       25.00       25.00       25.00       25.00       25.00       25.00       25.00       25.00       25.00    
  15    25.01       25.01       25.01       25.01       25.01       25.01       25.01       25.01       25.01       25.01    
        25.01       25.01       25.01       25.00       25.00       25.00       25.00       25.00       25.00       25.00    
        25.00       25.00       25.00       25.00       25.00       25.00       25.00       25.00       25.00       25.00    
        25.00       25.00       25.00       25.00       25.00       25.00       25.00       25.00       25.00       25.00    
  16    25.01       25.01       25.01       25.01       25.01       25.01       25.01       25.01       25.01       25.01    
        25.01       25.01       25.00       25.00       25.00       25.00       25.00       25.00       25.00       25.00    
        25.00       25.00       25.00       25.00       25.00       25.00       25.00       25.00       25.00       25.00    
        25.00       25.00       25.00       25.00       25.00       25.00       25.00       25.00       25.00       25.00    
  17    25.01       25.01       25.01       25.01       25.01       25.01       25.01       25.01       25.01       25.01    
        25.00       25.00       25.00       25.00       25.00       25.00       25.00       25.00       25.00       25.00    
        25.00       25.00       25.00       25.00       25.00       25.00       25.00       25.00       25.00       25.00    
        25.00       25.00       25.00       25.00       25.00       25.00       25.00       25.00       25.00       25.00    
  18    25.01       25.01       25.01       25.01       25.01       25.01       25.01       25.01       25.00       25.00    
        25.00       25.00       25.00       25.00       25.00       25.00       25.00       25.00       25.00       25.00    
        25.00       25.00       25.00       25.00       25.00       25.00       25.00       25.00       25.00       25.00    
        25.00       25.00       25.00       25.00       25.00       25.00       25.00       25.00       25.00       25.00    
  19    25.01       25.01       25.01       25.01       25.01       25.00       25.00       25.00       25.00       25.00    
        25.00       25.00       25.00       25.00       25.00       25.00       25.00       25.00       25.00       25.00    
        25.00       25.00       25.00       25.00       25.00       25.00       25.00       25.00       25.00       25.00    
        25.00       25.00       25.00       25.00       25.00       25.00       25.00       25.00       25.00       25.00    
  20    25.00       25.00       25.00       25.00       25.00       25.00       25.00       25.00       25.00       25.00    
        25.00       25.00       25.00       25.00       25.00       25.00       25.00       25.00       25.00       25.00    
        25.00       25.00       25.00       25.00       25.00       25.00       25.00       25.00       25.00       25.00    
        25.00       25.00       25.00       25.00       25.00       25.00       25.00       25.00       25.00       25.00    
  21    25.00       25.00       25.00       25.00       25.00       25.00       25.00       25.00       25.00       25.00    
        25.00       25.00       25.00       25.00       25.00       25.00       25.00       25.00       25.00       25.00    
        25.00       25.00       25.00       25.00       25.00       25.00       25.00       25.00       25.00       25.00    
        25.00       25.00       25.00       25.00       25.00       25.00       25.00       25.00       25.00       25.00    
  22    25.00       25.00       25.00       25.00       25.00       25.00       25.00       25.00       25.00       25.00    
        25.00       25.00       25.00       25.00       25.00       25.00       25.00       25.00       25.00       25.00    
        25.00       25.00       25.00       25.00       25.00       25.00       25.00       25.00       25.00       25.00    
        25.00       25.00       25.00       25.00       25.00       25.00       25.00       25.00       25.00       25.00    
  23    25.00       25.00       25.00       25.00       25.00       25.00       25.00       25.00       25.00       25.00    
        25.00       25.00       25.00       25.00       25.00       25.00       25.00       25.00       25.00       25.00    
        25.00       25.00       25.00       25.00       25.00       25.00       25.00       25.00       25.00       25.00    
        25.00       25.00       25.00       25.00       25.00       25.00       25.00       25.00       25.00       25.00    
  24    25.00       25.00       25.00       25.00       25.00       25.00       25.00       25.00       25.00       25.00    
        25.00       25.00       25.00       25.00       25.00       25.00       25.00       25.00       25.00       25.00    
        25.00       25.00       25.00       25.00       25.00       25.00       25.00       25.00       25.00       25.00    
        25.00       25.00       25.00       25.00       25.00       25.00       25.00       25.00       25.00       25.00    
  25    25.00       25.00       25.00       25.00       25.00       25.00       25.00       25.00       25.00       25.00    
        25.00       25.00       25.00       25.00       25.00       25.00       25.00       25.00       25.00       25.00    
        25.00       25.00       25.00       25.00       25.00       25.00       25.00       25.00       25.00       25.00    
        25.00       25.00       25.00       25.00       25.00       25.00       25.00       25.00       25.00       25.00    
  26    25.00       25.00       25.00       25.00       25.00       25.00       25.00       25.00       25.00       25.00    
        25.00       25.00       25.00       25.00       25.00       25.00       25.00       25.00       25.00       25.00    
        25.00       25.00       25.00       25.00       25.00       25.00       25.00       25.00       25.00       25.00    
        25.00       25.00       25.00       25.00       25.00       25.00       25.00       25.00       25.00       25.00    
  27    25.00       25.00       25.00       25.00       25.00       25.00       25.00       25.00       25.00       25.00    
        25.00       25.00       25.00       25.00       25.00       25.00       25.00       25.00       25.00       25.00    
        25.00       25.00       25.00       25.00       25.00       25.00       25.00       25.00       25.00       25.00    
        25.00       25.00       25.00       25.00       25.00       25.00       25.00       25.00       25.00       25.00    
  28    25.00       25.00       25.00       25.00       25.00       25.00       25.00       25.00       25.00       25.00    
        25.00       25.00       25.00       25.00       25.00       25.00       25.00       25.00       25.00       25.00    
        25.00       25.00       25.00       25.00       25.00       25.00       25.00       25.00       25.00       25.00    
        25.00       25.00       25.00       25.00       25.00       25.00       25.00       25.00       25.00       25.00    
  29    25.00       25.00       25.00       25.00       25.00       25.00       25.00       25.00       25.00       25.00    
        25.00       25.00       25.00       25.00       25.00       25.00       25.00       25.00       25.00       25.00    
        25.00       25.00       25.00       25.00       25.00       25.00       25.00       25.00       25.00       25.00    
        25.00       25.00       25.00       25.00       25.00       25.00       25.00       25.00       25.00       25.00    
  30    25.00       25.00       25.00       25.00       25.00       25.00       25.00       25.00       25.00       25.00    
        25.00       25.00       25.00       25.00       25.00       25.00       25.00       25.00       25.00       25.00    
        25.00       25.00       25.00       25.00       25.00       25.00       25.00       25.00       25.00       25.00    
        25.00       25.00       25.00       25.00       25.00       25.00       25.00       25.00       25.00       25.00    
  31    25.00       25.00       25.00       25.00       25.00       25.00       25.00       25.00       25.00       25.00    
        25.00       25.00       25.00       25.00       25.00       25.00       25.00       25.00       25.00       25.00    
        25.00       25.00       25.00       25.00       25.00       25.00       25.00       25.00       25.00       25.00    
        25.00       25.00       25.00       25.00       25.00       25.00       25.00       25.00       25.00       25.00    
  32    25.00       25.00       25.00       25.00       25.00       25.00       25.00       25.00       25.00       25.00    
        25.00       25.00       25.00       25.00       25.00       25.00       25.00       25.00       25.00       25.00    
        25.00       25.00       25.00       25.00       25.00       25.00       25.00       25.00       25.00       25.00    
        25.00       25.00       25.00       25.00       25.00       25.00       25.00       25.00       25.00       25.00    
  33    25.00       25.00       25.00       25.00       25.00       25.00       25.00       25.00       25.00       25.00    
        25.00       25.00       25.00       25.00       25.00       25.00       25.00       25.00       25.00       25.00    
        25.00       25.00       25.00       25.00       25.00       25.00       25.00       25.00       25.00       25.00    
        25.00       25.00       25.00       25.00       25.00       25.00       25.00       25.00       25.00       25.00    
  34    25.00       25.00       25.00       25.00       25.00       25.00       25.00       25.00       25.00       25.00    
        25.00       25.00       25.00       25.00       25.00       25.00       25.00       25.00       25.00       25.00    
        25.00       25.00       25.00       25.00       25.00       25.00       25.00       25.00       25.00       25.00    
        25.00       25.00       25.00       25.00       25.00       25.00       25.00       25.00       25.00       25.00    
  35    25.00       25.00       25.00       25.00       25.00       25.00       25.00       25.00       25.00       25.00    
        25.00       25.00       25.00       25.00       25.00       25.00       25.00       25.00       25.00       25.00    
        25.00       25.00       25.00       25.00       25.00       25.00       25.00       25.00       25.00       25.00    
        25.00       25.00       25.00       25.00       25.00       25.00       25.00       25.00       25.00       25.00    
  36    25.00       25.00       25.00       25.00       25.00       25.00       25.00       25.00       25.00       25.00    
        25.00       25.00       25.00       25.00       25.00       25.00       25.00       25.00       25.00       25.00    
        25.00       25.00       25.00       25.00       25.00       25.00       25.00       25.00       25.00       25.00    
        25.00       25.00       25.00       25.00       25.00       25.00       25.00       25.00       25.00       25.00    
  37    25.00       25.00       25.00       25.00       25.00       25.00       25.00       25.00       25.00       25.00    
        25.00       25.00       25.00       25.00       25.00       25.00       25.00       25.00       25.00       25.00    
        25.00       25.00       25.00       25.00       25.00       25.00       25.00       25.00       25.00       25.00    
        25.00       25.00       25.00       25.00       25.00       25.00       25.00       25.00       25.00       25.00    
  38    25.00       25.00       25.00       25.00       25.00       25.00       25.00       25.00       25.00       25.00    
        25.00       25.00       25.00       25.00       25.00       25.00       25.00       25.00       25.00       25.00    
        25.00       25.00       25.00       25.00       25.00       25.00       25.00       25.00       25.00       25.00    
        25.00       25.00       25.00       25.00       25.00       25.00       25.00       25.00       25.00       25.00    
  39    25.00       25.00       25.00       25.00       25.00       25.00       25.00       25.00       25.00       25.00    
        25.00       25.00       25.00       25.00       25.00       25.00       25.00       25.00       25.00       25.00    
        25.00       25.00       25.00       25.00       25.00       25.00       25.00       25.00       25.00       25.00    
        25.00       25.00       25.00       25.00       25.00       25.00       25.00       25.00       25.00       25.00    
  40    25.00       25.00       25.00       25.00       25.00       25.00       25.00       25.00       25.00       25.00    
        25.00       25.00       25.00       25.00       25.00       25.00       25.00       25.00       25.00       25.00    
        25.00       25.00       25.00       25.00       25.00       25.00       25.00       25.00       25.00       25.00    
        25.00       25.00       25.00       25.00       25.00       25.00       25.00       25.00       25.00       25.00    
1
              HEAD IN LAYER  11 AT END OF TIME STEP  10 IN STRESS PERIOD    1
  ---------------------------------------------------------------------------

            1           2           3           4           5           6           7           8           9          10
           11          12          13          14          15          16          17          18          19          20
           21          22          23          24          25          26          27          28          29          30
           31          32          33          34          35          36          37          38          39          40
 ........................................................................................................................
   1    39.22       37.52       33.44       30.42       28.32       26.98       26.16       25.66       25.37       25.21    
        25.11       25.06       25.03       25.02       25.01       25.01       25.01       25.01       25.01       25.00    
        25.00       25.00       25.00       25.00       25.00       25.00       25.00       25.00       25.00       25.00    
        25.00       25.00       25.00       25.00       25.00       25.00       25.00       25.00       25.00       25.00    
   2    37.52       36.01       32.42       29.77       27.98       26.80       26.06       25.61       25.35       25.19    
        25.11       25.06       25.03       25.02       25.01       25.01       25.01       25.01       25.01       25.00    
        25.00       25.00       25.00       25.00       25.00       25.00       25.00       25.00       25.00       25.00    
        25.00       25.00       25.00       25.00       25.00       25.00       25.00       25.00       25.00       25.00    
   3    33.44       32.42       30.47       28.73       27.41       26.49       25.90       25.52       25.30       25.17    
        25.09       25.05       25.03       25.02       25.01       25.01       25.01       25.01       25.01       25.00    
        25.00       25.00       25.00       25.00       25.00       25.00       25.00       25.00       25.00       25.00    
        25.00       25.00       25.00       25.00       25.00       25.00       25.00       25.00       25.00       25.00    
   4    30.42       29.77       28.73       27.66       26.79       26.14       25.70       25.42       25.24       25.14    
        25.08       25.04       25.02       25.01       25.01       25.01       25.01       25.01       25.01       25.00    
        25.00       25.00       25.00       25.00       25.00       25.00       25.00       25.00       25.00       25.00    
        25.00       25.00       25.00       25.00       25.00       25.00       25.00       25.00       25.00       25.00    
   5    28.32       27.98       27.41       26.79       26.24       25.82       25.52       25.32       25.19       25.11    
        25.06       25.04       25.02       25.01       25.01       25.01       25.01       25.01       25.01       25.00    
        25.00       25.00       25.00       25.00       25.00       25.00       25.00       25.00       25.00       25.00    
        25.00       25.00       25.00       25.00       25.00       25.00       25.00       25.00       25.00       25.00    
   6    26.98       26.80       26.49       26.14       25.82       25.55       25.36       25.23       25.14       25.08    
        25.05       25.03       25.02       25.01       25.01       25.01       25.01       25.01       25.00       25.00    
        25.00       25.00       25.00       25.00       25.00       25.00       25.00       25.00       25.00       25.00    
        25.00       25.00       25.00       25.00       25.00       25.00       25.00       25.00       25.00       25.00    
   7    26.16       26.06       25.90       25.70       25.52       25.36       25.24       25.15       25.10       25.06    
        25.03       25.02       25.01       25.01       25.01       25.01       25.01       25.01       25.00       25.00    
        25.00       25.00       25.00       25.00       25.00       25.00       25.00       25.00       25.00       25.00    
        25.00       25.00       25.00       25.00       25.00       25.00       25.00       25.00       25.00       25.00    
   8    25.66       25.61       25.52       25.42       25.32       25.23       25.15       25.10       25.06       25.04    
        25.02       25.02       25.01       25.01       25.01       25.01       25.01       25.01       25.00       25.00    
        25.00       25.00       25.00       25.00       25.00       25.00       25.00       25.00       25.00       25.00    
        25.00       25.00       25.00       25.00       25.00       25.00       25.00       25.00       25.00       25.00    
   9    25.37       25.35       25.30       25.24       25.19       25.14       25.10       25.06       25.04       25.03    
        25.02       25.01       25.01       25.01       25.01       25.01       25.01       25.00       25.00       25.00    
        25.00       25.00       25.00       25.00       25.00       25.00       25.00       25.00       25.00       25.00    
        25.00       25.00       25.00       25.00       25.00       25.00       25.00       25.00       25.00       25.00    
  10    25.21       25.19       25.17       25.14       25.11       25.08       25.06       25.04       25.03       25.02    
        25.01       25.01       25.01       25.01       25.01       25.01       25.01       25.00       25.00       25.00    
        25.00       25.00       25.00       25.00       25.00       25.00       25.00       25.00       25.00       25.00    
        25.00       25.00       25.00       25.00       25.00       25.00       25.00       25.00       25.00       25.00    
  11    25.11       25.11       25.09       25.08       25.06       25.05       25.03       25.02       25.02       25.01    
        25.01       25.01       25.01       25.01       25.01       25.01       25.00       25.00       25.00       25.00    
        25.00       25.00       25.00       25.00       25.00       25.00       25.00       25.00       25.00       25.00    
        25.00       25.00       25.00       25.00       25.00       25.00       25.00       25.00       25.00       25.00    
  12    25.06       25.06       25.05       25.04       25.04       25.03       25.02       25.02       25.01       25.01    
        25.01       25.01       25.01       25.01       25.01       25.01       25.00       25.00       25.00       25.00    
        25.00       25.00       25.00       25.00       25.00       25.00       25.00       25.00       25.00       25.00    
        25.00       25.00       25.00       25.00       25.00       25.00       25.00       25.00       25.00       25.00    
  13    25.03       25.03       25.03       25.02       25.02       25.02       25.01       25.01       25.01       25.01    
        25.01       25.01       25.01       25.01       25.01       25.00       25.00       25.00       25.00       25.00    
        25.00       25.00       25.00       25.00       25.00       25.00       25.00       25.00       25.00       25.00    
        25.00       25.00       25.00       25.00       25.00       25.00       25.00       25.00       25.00       25.00    
  14    25.02       25.02       25.02       25.01       25.01       25.01       25.01       25.01       25.01       25.01    
        25.01       25.01       25.01       25.01       25.00       25.00       25.00       25.00       25.00       25.00    
        25.00       25.00       25.00       25.00       25.00       25.00       25.00       25.00       25.00       25.00    
        25.00       25.00       25.00       25.00       25.00       25.00       25.00       25.00       25.00       25.00    
  15    25.01       25.01       25.01       25.01       25.01       25.01       25.01       25.01       25.01       25.01    
        25.01       25.01       25.01       25.00       25.00       25.00       25.00       25.00       25.00       25.00    
        25.00       25.00       25.00       25.00       25.00       25.00       25.00       25.00       25.00       25.00    
        25.00       25.00       25.00       25.00       25.00       25.00       25.00       25.00       25.00       25.00    
  16    25.01       25.01       25.01       25.01       25.01       25.01       25.01       25.01       25.01       25.01    
        25.01       25.01       25.00       25.00       25.00       25.00       25.00       25.00       25.00       25.00    
        25.00       25.00       25.00       25.00       25.00       25.00       25.00       25.00       25.00       25.00    
        25.00       25.00       25.00       25.00       25.00       25.00       25.00       25.00       25.00       25.00    
  17    25.01       25.01       25.01       25.01       25.01       25.01       25.01       25.01       25.01       25.01    
        25.00       25.00       25.00       25.00       25.00       25.00       25.00       25.00       25.00       25.00    
        25.00       25.00       25.00       25.00       25.00       25.00       25.00       25.00       25.00       25.00    
        25.00       25.00       25.00       25.00       25.00       25.00       25.00       25.00       25.00       25.00    
  18    25.01       25.01       25.01       25.01       25.01       25.01       25.01       25.01       25.00       25.00    
        25.00       25.00       25.00       25.00       25.00       25.00       25.00       25.00       25.00       25.00    
        25.00       25.00       25.00       25.00       25.00       25.00       25.00       25.00       25.00       25.00    
        25.00       25.00       25.00       25.00       25.00       25.00       25.00       25.00       25.00       25.00    
  19    25.01       25.01       25.01       25.01       25.01       25.00       25.00       25.00       25.00       25.00    
        25.00       25.00       25.00       25.00       25.00       25.00       25.00       25.00       25.00       25.00    
        25.00       25.00       25.00       25.00       25.00       25.00       25.00       25.00       25.00       25.00    
        25.00       25.00       25.00       25.00       25.00       25.00       25.00       25.00       25.00       25.00    
  20    25.00       25.00       25.00       25.00       25.00       25.00       25.00       25.00       25.00       25.00    
        25.00       25.00       25.00       25.00       25.00       25.00       25.00       25.00       25.00       25.00    
        25.00       25.00       25.00       25.00       25.00       25.00       25.00       25.00       25.00       25.00    
        25.00       25.00       25.00       25.00       25.00       25.00       25.00       25.00       25.00       25.00    
  21    25.00       25.00       25.00       25.00       25.00       25.00       25.00       25.00       25.00       25.00    
        25.00       25.00       25.00       25.00       25.00       25.00       25.00       25.00       25.00       25.00    
        25.00       25.00       25.00       25.00       25.00       25.00       25.00       25.00       25.00       25.00    
        25.00       25.00       25.00       25.00       25.00       25.00       25.00       25.00       25.00       25.00    
  22    25.00       25.00       25.00       25.00       25.00       25.00       25.00       25.00       25.00       25.00    
        25.00       25.00       25.00       25.00       25.00       25.00       25.00       25.00       25.00       25.00    
        25.00       25.00       25.00       25.00       25.00       25.00       25.00       25.00       25.00       25.00    
        25.00       25.00       25.00       25.00       25.00       25.00       25.00       25.00       25.00       25.00    
  23    25.00       25.00       25.00       25.00       25.00       25.00       25.00       25.00       25.00       25.00    
        25.00       25.00       25.00       25.00       25.00       25.00       25.00       25.00       25.00       25.00    
        25.00       25.00       25.00       25.00       25.00       25.00       25.00       25.00       25.00       25.00    
        25.00       25.00       25.00       25.00       25.00       25.00       25.00       25.00       25.00       25.00    
  24    25.00       25.00       25.00       25.00       25.00       25.00       25.00       25.00       25.00       25.00    
        25.00       25.00       25.00       25.00       25.00       25.00       25.00       25.00       25.00       25.00    
        25.00       25.00       25.00       25.00       25.00       25.00       25.00       25.00       25.00       25.00    
        25.00       25.00       25.00       25.00       25.00       25.00       25.00       25.00       25.00       25.00    
  25    25.00       25.00       25.00       25.00       25.00       25.00       25.00       25.00       25.00       25.00    
        25.00       25.00       25.00       25.00       25.00       25.00       25.00       25.00       25.00       25.00    
        25.00       25.00       25.00       25.00       25.00       25.00       25.00       25.00       25.00       25.00    
        25.00       25.00       25.00       25.00       25.00       25.00       25.00       25.00       25.00       25.00    
  26    25.00       25.00       25.00       25.00       25.00       25.00       25.00       25.00       25.00       25.00    
        25.00       25.00       25.00       25.00       25.00       25.00       25.00       25.00       25.00       25.00    
        25.00       25.00       25.00       25.00       25.00       25.00       25.00       25.00       25.00       25.00    
        25.00       25.00       25.00       25.00       25.00       25.00       25.00       25.00       25.00       25.00    
  27    25.00       25.00       25.00       25.00       25.00       25.00       25.00       25.00       25.00       25.00    
        25.00       25.00       25.00       25.00       25.00       25.00       25.00       25.00       25.00       25.00    
        25.00       25.00       25.00       25.00       25.00       25.00       25.00       25.00       25.00       25.00    
        25.00       25.00       25.00       25.00       25.00       25.00       25.00       25.00       25.00       25.00    
  28    25.00       25.00       25.00       25.00       25.00       25.00       25.00       25.00       25.00       25.00    
        25.00       25.00       25.00       25.00       25.00       25.00       25.00       25.00       25.00       25.00    
        25.00       25.00       25.00       25.00       25.00       25.00       25.00       25.00       25.00       25.00    
        25.00       25.00       25.00       25.00       25.00       25.00       25.00       25.00       25.00       25.00    
  29    25.00       25.00       25.00       25.00       25.00       25.00       25.00       25.00       25.00       25.00    
        25.00       25.00       25.00       25.00       25.00       25.00       25.00       25.00       25.00       25.00    
        25.00       25.00       25.00       25.00       25.00       25.00       25.00       25.00       25.00       25.00    
        25.00       25.00       25.00       25.00       25.00       25.00       25.00       25.00       25.00       25.00    
  30    25.00       25.00       25.00       25.00       25.00       25.00       25.00       25.00       25.00       25.00    
        25.00       25.00       25.00       25.00       25.00       25.00       25.00       25.00       25.00       25.00    
        25.00       25.00       25.00       25.00       25.00       25.00       25.00       25.00       25.00       25.00    
        25.00       25.00       25.00       25.00       25.00       25.00       25.00       25.00       25.00       25.00    
  31    25.00       25.00       25.00       25.00       25.00       25.00       25.00       25.00       25.00       25.00    
        25.00       25.00       25.00       25.00       25.00       25.00       25.00       25.00       25.00       25.00    
        25.00       25.00       25.00       25.00       25.00       25.00       25.00       25.00       25.00       25.00    
        25.00       25.00       25.00       25.00       25.00       25.00       25.00       25.00       25.00       25.00    
  32    25.00       25.00       25.00       25.00       25.00       25.00       25.00       25.00       25.00       25.00    
        25.00       25.00       25.00       25.00       25.00       25.00       25.00       25.00       25.00       25.00    
        25.00       25.00       25.00       25.00       25.00       25.00       25.00       25.00       25.00       25.00    
        25.00       25.00       25.00       25.00       25.00       25.00       25.00       25.00       25.00       25.00    
  33    25.00       25.00       25.00       25.00       25.00       25.00       25.00       25.00       25.00       25.00    
        25.00       25.00       25.00       25.00       25.00       25.00       25.00       25.00       25.00       25.00    
        25.00       25.00       25.00       25.00       25.00       25.00       25.00       25.00       25.00       25.00    
        25.00       25.00       25.00       25.00       25.00       25.00       25.00       25.00       25.00       25.00    
  34    25.00       25.00       25.00       25.00       25.00       25.00       25.00       25.00       25.00       25.00    
        25.00       25.00       25.00       25.00       25.00       25.00       25.00       25.00       25.00       25.00    
        25.00       25.00       25.00       25.00       25.00       25.00       25.00       25.00       25.00       25.00    
        25.00       25.00       25.00       25.00       25.00       25.00       25.00       25.00       25.00       25.00    
  35    25.00       25.00       25.00       25.00       25.00       25.00       25.00       25.00       25.00       25.00    
        25.00       25.00       25.00       25.00       25.00       25.00       25.00       25.00       25.00       25.00    
        25.00       25.00       25.00       25.00       25.00       25.00       25.00       25.00       25.00       25.00    
        25.00       25.00       25.00       25.00       25.00       25.00       25.00       25.00       25.00       25.00    
  36    25.00       25.00       25.00       25.00       25.00       25.00       25.00       25.00       25.00       25.00    
        25.00       25.00       25.00       25.00       25.00       25.00       25.00       25.00       25.00       25.00    
        25.00       25.00       25.00       25.00       25.00       25.00       25.00       25.00       25.00       25.00    
        25.00       25.00       25.00       25.00       25.00       25.00       25.00       25.00       25.00       25.00    
  37    25.00       25.00       25.00       25.00       25.00       25.00       25.00       25.00       25.00       25.00    
        25.00       25.00       25.00       25.00       25.00       25.00       25.00       25.00       25.00       25.00    
        25.00       25.00       25.00       25.00       25.00       25.00       25.00       25.00       25.00       25.00    
        25.00       25.00       25.00       25.00       25.00       25.00       25.00       25.00       25.00       25.00    
  38    25.00       25.00       25.00       25.00       25.00       25.00       25.00       25.00       25.00       25.00    
        25.00       25.00       25.00       25.00       25.00       25.00       25.00       25.00       25.00       25.00    
        25.00       25.00       25.00       25.00       25.00       25.00       25.00       25.00       25.00       25.00    
        25.00       25.00       25.00       25.00       25.00       25.00       25.00       25.00       25.00       25.00    
  39    25.00       25.00       25.00       25.00       25.00       25.00       25.00       25.00       25.00       25.00    
        25.00       25.00       25.00       25.00       25.00       25.00       25.00       25.00       25.00       25.00    
        25.00       25.00       25.00       25.00       25.00       25.00       25.00       25.00       25.00       25.00    
        25.00       25.00       25.00       25.00       25.00       25.00       25.00       25.00       25.00       25.00    
  40    25.00       25.00       25.00       25.00       25.00       25.00       25.00       25.00       25.00       25.00    
        25.00       25.00       25.00       25.00       25.00       25.00       25.00       25.00       25.00       25.00    
        25.00       25.00       25.00       25.00       25.00       25.00       25.00       25.00       25.00       25.00    
        25.00       25.00       25.00       25.00       25.00       25.00       25.00       25.00       25.00       25.00    
1
              HEAD IN LAYER  12 AT END OF TIME STEP  10 IN STRESS PERIOD    1
  ---------------------------------------------------------------------------

            1           2           3           4           5           6           7           8           9          10
           11          12          13          14          15          16          17          18          19          20
           21          22          23          24          25          26          27          28          29          30
           31          32          33          34          35          36          37          38          39          40
 ........................................................................................................................
   1    38.89       37.19       33.41       30.44       28.36       27.01       26.18       25.68       25.38       25.21    
        25.12       25.06       25.03       25.02       25.01       25.01       25.01       25.01       25.01       25.00    
        25.00       25.00       25.00       25.00       25.00       25.00       25.00       25.00       25.00       25.00    
        25.00       25.00       25.00       25.00       25.00       25.00       25.00       25.00       25.00       25.00    
   2    37.19       35.69       32.39       29.80       28.01       26.83       26.08       25.63       25.35       25.20    
        25.11       25.06       25.03       25.02       25.01       25.01       25.01       25.01       25.01       25.00    
        25.00       25.00       25.00       25.00       25.00       25.00       25.00       25.00       25.00       25.00    
        25.00       25.00       25.00       25.00       25.00       25.00       25.00       25.00       25.00       25.00    
   3    33.41       32.39       30.50       28.76       27.44       26.52       25.91       25.54       25.31       25.17    
        25.10       25.05       25.03       25.02       25.01       25.01       25.01       25.01       25.01       25.00    
        25.00       25.00       25.00       25.00       25.00       25.00       25.00       25.00       25.00       25.00    
        25.00       25.00       25.00       25.00       25.00       25.00       25.00       25.00       25.00       25.00    
   4    30.44       29.80       28.76       27.70       26.81       26.16       25.72       25.43       25.25       25.14    
        25.08       25.05       25.03       25.01       25.01       25.01       25.01       25.01       25.01       25.00    
        25.00       25.00       25.00       25.00       25.00       25.00       25.00       25.00       25.00       25.00    
        25.00       25.00       25.00       25.00       25.00       25.00       25.00       25.00       25.00       25.00    
   5    28.36       28.01       27.44       26.81       26.26       25.83       25.53       25.32       25.19       25.11    
        25.06       25.04       25.02       25.01       25.01       25.01       25.01       25.01       25.01       25.00    
        25.00       25.00       25.00       25.00       25.00       25.00       25.00       25.00       25.00       25.00    
        25.00       25.00       25.00       25.00       25.00       25.00       25.00       25.00       25.00       25.00    
   6    27.01       26.83       26.52       26.16       25.83       25.57       25.37       25.23       25.14       25.08    
        25.05       25.03       25.02       25.01       25.01       25.01       25.01       25.01       25.00       25.00    
        25.00       25.00       25.00       25.00       25.00       25.00       25.00       25.00       25.00       25.00    
        25.00       25.00       25.00       25.00       25.00       25.00       25.00       25.00       25.00       25.00    
   7    26.18       26.08       25.91       25.72       25.53       25.37       25.25       25.16       25.10       25.06    
        25.04       25.02       25.01       25.01       25.01       25.01       25.01       25.01       25.00       25.00    
        25.00       25.00       25.00       25.00       25.00       25.00       25.00       25.00       25.00       25.00    
        25.00       25.00       25.00       25.00       25.00       25.00       25.00       25.00       25.00       25.00    
   8    25.68       25.63       25.54       25.43       25.32       25.23       25.16       25.10       25.07       25.04    
        25.03       25.02       25.01       25.01       25.01       25.01       25.01       25.01       25.00       25.00    
        25.00       25.00       25.00       25.00       25.00       25.00       25.00       25.00       25.00       25.00    
        25.00       25.00       25.00       25.00       25.00       25.00       25.00       25.00       25.00       25.00    
   9    25.38       25.35       25.31       25.25       25.19       25.14       25.10       25.07       25.04       25.03    
        25.02       25.01       25.01       25.01       25.01       25.01       25.01       25.00       25.00       25.00    
        25.00       25.00       25.00       25.00       25.00       25.00       25.00       25.00       25.00       25.00    
        25.00       25.00       25.00       25.00       25.00       25.00       25.00       25.00       25.00       25.00    
  10    25.21       25.20       25.17       25.14       25.11       25.08       25.06       25.04       25.03       25.02    
        25.01       25.01       25.01       25.01       25.01       25.01       25.01       25.00       25.00       25.00    
        25.00       25.00       25.00       25.00       25.00       25.00       25.00       25.00       25.00       25.00    
        25.00       25.00       25.00       25.00       25.00       25.00       25.00       25.00       25.00       25.00    
  11    25.12       25.11       25.10       25.08       25.06       25.05       25.04       25.03       25.02       25.01    
        25.01       25.01       25.01       25.01       25.01       25.01       25.00       25.00       25.00       25.00    
        25.00       25.00       25.00       25.00       25.00       25.00       25.00       25.00       25.00       25.00    
        25.00       25.00       25.00       25.00       25.00       25.00       25.00       25.00       25.00       25.00    
  12    25.06       25.06       25.05       25.05       25.04       25.03       25.02       25.02       25.01       25.01    
        25.01       25.01       25.01       25.01       25.01       25.01       25.00       25.00       25.00       25.00    
        25.00       25.00       25.00       25.00       25.00       25.00       25.00       25.00       25.00       25.00    
        25.00       25.00       25.00       25.00       25.00       25.00       25.00       25.00       25.00       25.00    
  13    25.03       25.03       25.03       25.03       25.02       25.02       25.01       25.01       25.01       25.01    
        25.01       25.01       25.01       25.01       25.01       25.00       25.00       25.00       25.00       25.00    
        25.00       25.00       25.00       25.00       25.00       25.00       25.00       25.00       25.00       25.00    
        25.00       25.00       25.00       25.00       25.00       25.00       25.00       25.00       25.00       25.00    
  14    25.02       25.02       25.02       25.01       25.01       25.01       25.01       25.01       25.01       25.01    
        25.01       25.01       25.01       25.01       25.00       25.00       25.00       25.00       25.00       25.00    
        25.00       25.00       25.00       25.00       25.00       25.00       25.00       25.00       25.00       25.00    
        25.00       25.00       25.00       25.00       25.00       25.00       25.00       25.00       25.00       25.00    
  15    25.01       25.01       25.01       25.01       25.01       25.01       25.01       25.01       25.01       25.01    
        25.01       25.01       25.01       25.00       25.00       25.00       25.00       25.00       25.00       25.00    
        25.00       25.00       25.00       25.00       25.00       25.00       25.00       25.00       25.00       25.00    
        25.00       25.00       25.00       25.00       25.00       25.00       25.00       25.00       25.00       25.00    
  16    25.01       25.01       25.01       25.01       25.01       25.01       25.01       25.01       25.01       25.01    
        25.01       25.01       25.00       25.00       25.00       25.00       25.00       25.00       25.00       25.00    
        25.00       25.00       25.00       25.00       25.00       25.00       25.00       25.00       25.00       25.00    
        25.00       25.00       25.00       25.00       25.00       25.00       25.00       25.00       25.00       25.00    
  17    25.01       25.01       25.01       25.01       25.01       25.01       25.01       25.01       25.01       25.01    
        25.00       25.00       25.00       25.00       25.00       25.00       25.00       25.00       25.00       25.00    
        25.00       25.00       25.00       25.00       25.00       25.00       25.00       25.00       25.00       25.00    
        25.00       25.00       25.00       25.00       25.00       25.00       25.00       25.00       25.00       25.00    
  18    25.01       25.01       25.01       25.01       25.01       25.01       25.01       25.01       25.00       25.00    
        25.00       25.00       25.00       25.00       25.00       25.00       25.00       25.00       25.00       25.00    
        25.00       25.00       25.00       25.00       25.00       25.00       25.00       25.00       25.00       25.00    
        25.00       25.00       25.00       25.00       25.00       25.00       25.00       25.00       25.00       25.00    
  19    25.01       25.01       25.01       25.01       25.01       25.00       25.00       25.00       25.00       25.00    
        25.00       25.00       25.00       25.00       25.00       25.00       25.00       25.00       25.00       25.00    
        25.00       25.00       25.00       25.00       25.00       25.00       25.00       25.00       25.00       25.00    
        25.00       25.00       25.00       25.00       25.00       25.00       25.00       25.00       25.00       25.00    
  20    25.00       25.00       25.00       25.00       25.00       25.00       25.00       25.00       25.00       25.00    
        25.00       25.00       25.00       25.00       25.00       25.00       25.00       25.00       25.00       25.00    
        25.00       25.00       25.00       25.00       25.00       25.00       25.00       25.00       25.00       25.00    
        25.00       25.00       25.00       25.00       25.00       25.00       25.00       25.00       25.00       25.00    
  21    25.00       25.00       25.00       25.00       25.00       25.00       25.00       25.00       25.00       25.00    
        25.00       25.00       25.00       25.00       25.00       25.00       25.00       25.00       25.00       25.00    
        25.00       25.00       25.00       25.00       25.00       25.00       25.00       25.00       25.00       25.00    
        25.00       25.00       25.00       25.00       25.00       25.00       25.00       25.00       25.00       25.00    
  22    25.00       25.00       25.00       25.00       25.00       25.00       25.00       25.00       25.00       25.00    
        25.00       25.00       25.00       25.00       25.00       25.00       25.00       25.00       25.00       25.00    
        25.00       25.00       25.00       25.00       25.00       25.00       25.00       25.00       25.00       25.00    
        25.00       25.00       25.00       25.00       25.00       25.00       25.00       25.00       25.00       25.00    
  23    25.00       25.00       25.00       25.00       25.00       25.00       25.00       25.00       25.00       25.00    
        25.00       25.00       25.00       25.00       25.00       25.00       25.00       25.00       25.00       25.00    
        25.00       25.00       25.00       25.00       25.00       25.00       25.00       25.00       25.00       25.00    
        25.00       25.00       25.00       25.00       25.00       25.00       25.00       25.00       25.00       25.00    
  24    25.00       25.00       25.00       25.00       25.00       25.00       25.00       25.00       25.00       25.00    
        25.00       25.00       25.00       25.00       25.00       25.00       25.00       25.00       25.00       25.00    
        25.00       25.00       25.00       25.00       25.00       25.00       25.00       25.00       25.00       25.00    
        25.00       25.00       25.00       25.00       25.00       25.00       25.00       25.00       25.00       25.00    
  25    25.00       25.00       25.00       25.00       25.00       25.00       25.00       25.00       25.00       25.00    
        25.00       25.00       25.00       25.00       25.00       25.00       25.00       25.00       25.00       25.00    
        25.00       25.00       25.00       25.00       25.00       25.00       25.00       25.00       25.00       25.00    
        25.00       25.00       25.00       25.00       25.00       25.00       25.00       25.00       25.00       25.00    
  26    25.00       25.00       25.00       25.00       25.00       25.00       25.00       25.00       25.00       25.00    
        25.00       25.00       25.00       25.00       25.00       25.00       25.00       25.00       25.00       25.00    
        25.00       25.00       25.00       25.00       25.00       25.00       25.00       25.00       25.00       25.00    
        25.00       25.00       25.00       25.00       25.00       25.00       25.00       25.00       25.00       25.00    
  27    25.00       25.00       25.00       25.00       25.00       25.00       25.00       25.00       25.00       25.00    
        25.00       25.00       25.00       25.00       25.00       25.00       25.00       25.00       25.00       25.00    
        25.00       25.00       25.00       25.00       25.00       25.00       25.00       25.00       25.00       25.00    
        25.00       25.00       25.00       25.00       25.00       25.00       25.00       25.00       25.00       25.00    
  28    25.00       25.00       25.00       25.00       25.00       25.00       25.00       25.00       25.00       25.00    
        25.00       25.00       25.00       25.00       25.00       25.00       25.00       25.00       25.00       25.00    
        25.00       25.00       25.00       25.00       25.00       25.00       25.00       25.00       25.00       25.00    
        25.00       25.00       25.00       25.00       25.00       25.00       25.00       25.00       25.00       25.00    
  29    25.00       25.00       25.00       25.00       25.00       25.00       25.00       25.00       25.00       25.00    
        25.00       25.00       25.00       25.00       25.00       25.00       25.00       25.00       25.00       25.00    
        25.00       25.00       25.00       25.00       25.00       25.00       25.00       25.00       25.00       25.00    
        25.00       25.00       25.00       25.00       25.00       25.00       25.00       25.00       25.00       25.00    
  30    25.00       25.00       25.00       25.00       25.00       25.00       25.00       25.00       25.00       25.00    
        25.00       25.00       25.00       25.00       25.00       25.00       25.00       25.00       25.00       25.00    
        25.00       25.00       25.00       25.00       25.00       25.00       25.00       25.00       25.00       25.00    
        25.00       25.00       25.00       25.00       25.00       25.00       25.00       25.00       25.00       25.00    
  31    25.00       25.00       25.00       25.00       25.00       25.00       25.00       25.00       25.00       25.00    
        25.00       25.00       25.00       25.00       25.00       25.00       25.00       25.00       25.00       25.00    
        25.00       25.00       25.00       25.00       25.00       25.00       25.00       25.00       25.00       25.00    
        25.00       25.00       25.00       25.00       25.00       25.00       25.00       25.00       25.00       25.00    
  32    25.00       25.00       25.00       25.00       25.00       25.00       25.00       25.00       25.00       25.00    
        25.00       25.00       25.00       25.00       25.00       25.00       25.00       25.00       25.00       25.00    
        25.00       25.00       25.00       25.00       25.00       25.00       25.00       25.00       25.00       25.00    
        25.00       25.00       25.00       25.00       25.00       25.00       25.00       25.00       25.00       25.00    
  33    25.00       25.00       25.00       25.00       25.00       25.00       25.00       25.00       25.00       25.00    
        25.00       25.00       25.00       25.00       25.00       25.00       25.00       25.00       25.00       25.00    
        25.00       25.00       25.00       25.00       25.00       25.00       25.00       25.00       25.00       25.00    
        25.00       25.00       25.00       25.00       25.00       25.00       25.00       25.00       25.00       25.00    
  34    25.00       25.00       25.00       25.00       25.00       25.00       25.00       25.00       25.00       25.00    
        25.00       25.00       25.00       25.00       25.00       25.00       25.00       25.00       25.00       25.00    
        25.00       25.00       25.00       25.00       25.00       25.00       25.00       25.00       25.00       25.00    
        25.00       25.00       25.00       25.00       25.00       25.00       25.00       25.00       25.00       25.00    
  35    25.00       25.00       25.00       25.00       25.00       25.00       25.00       25.00       25.00       25.00    
        25.00       25.00       25.00       25.00       25.00       25.00       25.00       25.00       25.00       25.00    
        25.00       25.00       25.00       25.00       25.00       25.00       25.00       25.00       25.00       25.00    
        25.00       25.00       25.00       25.00       25.00       25.00       25.00       25.00       25.00       25.00    
  36    25.00       25.00       25.00       25.00       25.00       25.00       25.00       25.00       25.00       25.00    
        25.00       25.00       25.00       25.00       25.00       25.00       25.00       25.00       25.00       25.00    
        25.00       25.00       25.00       25.00       25.00       25.00       25.00       25.00       25.00       25.00    
        25.00       25.00       25.00       25.00       25.00       25.00       25.00       25.00       25.00       25.00    
  37    25.00       25.00       25.00       25.00       25.00       25.00       25.00       25.00       25.00       25.00    
        25.00       25.00       25.00       25.00       25.00       25.00       25.00       25.00       25.00       25.00    
        25.00       25.00       25.00       25.00       25.00       25.00       25.00       25.00       25.00       25.00    
        25.00       25.00       25.00       25.00       25.00       25.00       25.00       25.00       25.00       25.00    
  38    25.00       25.00       25.00       25.00       25.00       25.00       25.00       25.00       25.00       25.00    
        25.00       25.00       25.00       25.00       25.00       25.00       25.00       25.00       25.00       25.00    
        25.00       25.00       25.00       25.00       25.00       25.00       25.00       25.00       25.00       25.00    
        25.00       25.00       25.00       25.00       25.00       25.00       25.00       25.00       25.00       25.00    
  39    25.00       25.00       25.00       25.00       25.00       25.00       25.00       25.00       25.00       25.00    
        25.00       25.00       25.00       25.00       25.00       25.00       25.00       25.00       25.00       25.00    
        25.00       25.00       25.00       25.00       25.00       25.00       25.00       25.00       25.00       25.00    
        25.00       25.00       25.00       25.00       25.00       25.00       25.00       25.00       25.00       25.00    
  40    25.00       25.00       25.00       25.00       25.00       25.00       25.00       25.00       25.00       25.00    
        25.00       25.00       25.00       25.00       25.00       25.00       25.00       25.00       25.00       25.00    
        25.00       25.00       25.00       25.00       25.00       25.00       25.00       25.00       25.00       25.00    
        25.00       25.00       25.00       25.00       25.00       25.00       25.00       25.00       25.00       25.00    
1
              HEAD IN LAYER  13 AT END OF TIME STEP  10 IN STRESS PERIOD    1
  ---------------------------------------------------------------------------

            1           2           3           4           5           6           7           8           9          10
           11          12          13          14          15          16          17          18          19          20
           21          22          23          24          25          26          27          28          29          30
           31          32          33          34          35          36          37          38          39          40
 ........................................................................................................................
   1    38.67       36.97       33.38       30.45       28.38       27.03       26.19       25.69       25.39       25.22    
        25.12       25.06       25.03       25.02       25.01       25.01       25.01       25.01       25.01       25.00    
        25.00       25.00       25.00       25.00       25.00       25.00       25.00       25.00       25.00       25.00    
        25.00       25.00       25.00       25.00       25.00       25.00       25.00       25.00       25.00       25.00    
   2    36.97       35.48       32.37       29.82       28.04       26.85       26.10       25.63       25.36       25.20    
        25.11       25.06       25.03       25.02       25.01       25.01       25.01       25.01       25.01       25.00    
        25.00       25.00       25.00       25.00       25.00       25.00       25.00       25.00       25.00       25.00    
        25.00       25.00       25.00       25.00       25.00       25.00       25.00       25.00       25.00       25.00    
   3    33.38       32.37       30.51       28.78       27.46       26.53       25.93       25.54       25.31       25.18    
        25.10       25.05       25.03       25.02       25.01       25.01       25.01       25.01       25.01       25.00    
        25.00       25.00       25.00       25.00       25.00       25.00       25.00       25.00       25.00       25.00    
        25.00       25.00       25.00       25.00       25.00       25.00       25.00       25.00       25.00       25.00    
   4    30.45       29.82       28.78       27.72       26.83       26.18       25.73       25.44       25.26       25.15    
        25.08       25.05       25.03       25.01       25.01       25.01       25.01       25.01       25.01       25.00    
        25.00       25.00       25.00       25.00       25.00       25.00       25.00       25.00       25.00       25.00    
        25.00       25.00       25.00       25.00       25.00       25.00       25.00       25.00       25.00       25.00    
   5    28.38       28.04       27.46       26.83       26.28       25.85       25.54       25.33       25.20       25.11    
        25.07       25.04       25.02       25.01       25.01       25.01       25.01       25.01       25.01       25.00    
        25.00       25.00       25.00       25.00       25.00       25.00       25.00       25.00       25.00       25.00    
        25.00       25.00       25.00       25.00       25.00       25.00       25.00       25.00       25.00       25.00    
   6    27.03       26.85       26.53       26.18       25.85       25.58       25.38       25.24       25.14       25.09    
        25.05       25.03       25.02       25.01       25.01       25.01       25.01       25.01       25.00       25.00    
        25.00       25.00       25.00       25.00       25.00       25.00       25.00       25.00       25.00       25.00    
        25.00       25.00       25.00       25.00       25.00       25.00       25.00       25.00       25.00       25.00    
   7    26.19       26.10       25.93       25.73       25.54       25.38       25.25       25.16       25.10       25.06    
        25.04       25.02       25.01       25.01       25.01       25.01       25.01       25.01       25.00       25.00    
        25.00       25.00       25.00       25.00       25.00       25.00       25.00       25.00       25.00       25.00    
        25.00       25.00       25.00       25.00       25.00       25.00       25.00       25.00       25.00       25.00    
   8    25.69       25.63       25.54       25.44       25.33       25.24       25.16       25.11       25.07       25.04    
        25.03       25.02       25.01       25.01       25.01       25.01       25.01       25.01       25.00       25.00    
        25.00       25.00       25.00       25.00       25.00       25.00       25.00       25.00       25.00       25.00    
        25.00       25.00       25.00       25.00       25.00       25.00       25.00       25.00       25.00       25.00    
   9    25.39       25.36       25.31       25.26       25.20       25.14       25.10       25.07       25.04       25.03    
        25.02       25.01       25.01       25.01       25.01       25.01       25.01       25.00       25.00       25.00    
        25.00       25.00       25.00       25.00       25.00       25.00       25.00       25.00       25.00       25.00    
        25.00       25.00       25.00       25.00       25.00       25.00       25.00       25.00       25.00       25.00    
  10    25.22       25.20       25.18       25.15       25.11       25.09       25.06       25.04       25.03       25.02    
        25.01       25.01       25.01       25.01       25.01       25.01       25.01       25.00       25.00       25.00    
        25.00       25.00       25.00       25.00       25.00       25.00       25.00       25.00       25.00       25.00    
        25.00       25.00       25.00       25.00       25.00       25.00       25.00       25.00       25.00       25.00    
  11    25.12       25.11       25.10       25.08       25.07       25.05       25.04       25.03       25.02       25.01    
        25.01       25.01       25.01       25.01       25.01       25.01       25.00       25.00       25.00       25.00    
        25.00       25.00       25.00       25.00       25.00       25.00       25.00       25.00       25.00       25.00    
        25.00       25.00       25.00       25.00       25.00       25.00       25.00       25.00       25.00       25.00    
  12    25.06       25.06       25.05       25.05       25.04       25.03       25.02       25.02       25.01       25.01    
        25.01       25.01       25.01       25.01       25.01       25.01       25.00       25.00       25.00       25.00    
        25.00       25.00       25.00       25.00       25.00       25.00       25.00       25.00       25.00       25.00    
        25.00       25.00       25.00       25.00       25.00       25.00       25.00       25.00       25.00       25.00    
  13    25.03       25.03       25.03       25.03       25.02       25.02       25.01       25.01       25.01       25.01    
        25.01       25.01       25.01       25.01       25.01       25.00       25.00       25.00       25.00       25.00    
        25.00       25.00       25.00       25.00       25.00       25.00       25.00       25.00       25.00       25.00    
        25.00       25.00       25.00       25.00       25.00       25.00       25.00       25.00       25.00       25.00    
  14    25.02       25.02       25.02       25.01       25.01       25.01       25.01       25.01       25.01       25.01    
        25.01       25.01       25.01       25.01       25.00       25.00       25.00       25.00       25.00       25.00    
        25.00       25.00       25.00       25.00       25.00       25.00       25.00       25.00       25.00       25.00    
        25.00       25.00       25.00       25.00       25.00       25.00       25.00       25.00       25.00       25.00    
  15    25.01       25.01       25.01       25.01       25.01       25.01       25.01       25.01       25.01       25.01    
        25.01       25.01       25.01       25.00       25.00       25.00       25.00       25.00       25.00       25.00    
        25.00       25.00       25.00       25.00       25.00       25.00       25.00       25.00       25.00       25.00    
        25.00       25.00       25.00       25.00       25.00       25.00       25.00       25.00       25.00       25.00    
  16    25.01       25.01       25.01       25.01       25.01       25.01       25.01       25.01       25.01       25.01    
        25.01       25.01       25.00       25.00       25.00       25.00       25.00       25.00       25.00       25.00    
        25.00       25.00       25.00       25.00       25.00       25.00       25.00       25.00       25.00       25.00    
        25.00       25.00       25.00       25.00       25.00       25.00       25.00       25.00       25.00       25.00    
  17    25.01       25.01       25.01       25.01       25.01       25.01       25.01       25.01       25.01       25.01    
        25.00       25.00       25.00       25.00       25.00       25.00       25.00       25.00       25.00       25.00    
        25.00       25.00       25.00       25.00       25.00       25.00       25.00       25.00       25.00       25.00    
        25.00       25.00       25.00       25.00       25.00       25.00       25.00       25.00       25.00       25.00    
  18    25.01       25.01       25.01       25.01       25.01       25.01       25.01       25.01       25.00       25.00    
        25.00       25.00       25.00       25.00       25.00       25.00       25.00       25.00       25.00       25.00    
        25.00       25.00       25.00       25.00       25.00       25.00       25.00       25.00       25.00       25.00    
        25.00       25.00       25.00       25.00       25.00       25.00       25.00       25.00       25.00       25.00    
  19    25.01       25.01       25.01       25.01       25.01       25.00       25.00       25.00       25.00       25.00    
        25.00       25.00       25.00       25.00       25.00       25.00       25.00       25.00       25.00       25.00    
        25.00       25.00       25.00       25.00       25.00       25.00       25.00       25.00       25.00       25.00    
        25.00       25.00       25.00       25.00       25.00       25.00       25.00       25.00       25.00       25.00    
  20    25.00       25.00       25.00       25.00       25.00       25.00       25.00       25.00       25.00       25.00    
        25.00       25.00       25.00       25.00       25.00       25.00       25.00       25.00       25.00       25.00    
        25.00       25.00       25.00       25.00       25.00       25.00       25.00       25.00       25.00       25.00    
        25.00       25.00       25.00       25.00       25.00       25.00       25.00       25.00       25.00       25.00    
  21    25.00       25.00       25.00       25.00       25.00       25.00       25.00       25.00       25.00       25.00    
        25.00       25.00       25.00       25.00       25.00       25.00       25.00       25.00       25.00       25.00    
        25.00       25.00       25.00       25.00       25.00       25.00       25.00       25.00       25.00       25.00    
        25.00       25.00       25.00       25.00       25.00       25.00       25.00       25.00       25.00       25.00    
  22    25.00       25.00       25.00       25.00       25.00       25.00       25.00       25.00       25.00       25.00    
        25.00       25.00       25.00       25.00       25.00       25.00       25.00       25.00       25.00       25.00    
        25.00       25.00       25.00       25.00       25.00       25.00       25.00       25.00       25.00       25.00    
        25.00       25.00       25.00       25.00       25.00       25.00       25.00       25.00       25.00       25.00    
  23    25.00       25.00       25.00       25.00       25.00       25.00       25.00       25.00       25.00       25.00    
        25.00       25.00       25.00       25.00       25.00       25.00       25.00       25.00       25.00       25.00    
        25.00       25.00       25.00       25.00       25.00       25.00       25.00       25.00       25.00       25.00    
        25.00       25.00       25.00       25.00       25.00       25.00       25.00       25.00       25.00       25.00    
  24    25.00       25.00       25.00       25.00       25.00       25.00       25.00       25.00       25.00       25.00    
        25.00       25.00       25.00       25.00       25.00       25.00       25.00       25.00       25.00       25.00    
        25.00       25.00       25.00       25.00       25.00       25.00       25.00       25.00       25.00       25.00    
        25.00       25.00       25.00       25.00       25.00       25.00       25.00       25.00       25.00       25.00    
  25    25.00       25.00       25.00       25.00       25.00       25.00       25.00       25.00       25.00       25.00    
        25.00       25.00       25.00       25.00       25.00       25.00       25.00       25.00       25.00       25.00    
        25.00       25.00       25.00       25.00       25.00       25.00       25.00       25.00       25.00       25.00    
        25.00       25.00       25.00       25.00       25.00       25.00       25.00       25.00       25.00       25.00    
  26    25.00       25.00       25.00       25.00       25.00       25.00       25.00       25.00       25.00       25.00    
        25.00       25.00       25.00       25.00       25.00       25.00       25.00       25.00       25.00       25.00    
        25.00       25.00       25.00       25.00       25.00       25.00       25.00       25.00       25.00       25.00    
        25.00       25.00       25.00       25.00       25.00       25.00       25.00       25.00       25.00       25.00    
  27    25.00       25.00       25.00       25.00       25.00       25.00       25.00       25.00       25.00       25.00    
        25.00       25.00       25.00       25.00       25.00       25.00       25.00       25.00       25.00       25.00    
        25.00       25.00       25.00       25.00       25.00       25.00       25.00       25.00       25.00       25.00    
        25.00       25.00       25.00       25.00       25.00       25.00       25.00       25.00       25.00       25.00    
  28    25.00       25.00       25.00       25.00       25.00       25.00       25.00       25.00       25.00       25.00    
        25.00       25.00       25.00       25.00       25.00       25.00       25.00       25.00       25.00       25.00    
        25.00       25.00       25.00       25.00       25.00       25.00       25.00       25.00       25.00       25.00    
        25.00       25.00       25.00       25.00       25.00       25.00       25.00       25.00       25.00       25.00    
  29    25.00       25.00       25.00       25.00       25.00       25.00       25.00       25.00       25.00       25.00    
        25.00       25.00       25.00       25.00       25.00       25.00       25.00       25.00       25.00       25.00    
        25.00       25.00       25.00       25.00       25.00       25.00       25.00       25.00       25.00       25.00    
        25.00       25.00       25.00       25.00       25.00       25.00       25.00       25.00       25.00       25.00    
  30    25.00       25.00       25.00       25.00       25.00       25.00       25.00       25.00       25.00       25.00    
        25.00       25.00       25.00       25.00       25.00       25.00       25.00       25.00       25.00       25.00    
        25.00       25.00       25.00       25.00       25.00       25.00       25.00       25.00       25.00       25.00    
        25.00       25.00       25.00       25.00       25.00       25.00       25.00       25.00       25.00       25.00    
  31    25.00       25.00       25.00       25.00       25.00       25.00       25.00       25.00       25.00       25.00    
        25.00       25.00       25.00       25.00       25.00       25.00       25.00       25.00       25.00       25.00    
        25.00       25.00       25.00       25.00       25.00       25.00       25.00       25.00       25.00       25.00    
        25.00       25.00       25.00       25.00       25.00       25.00       25.00       25.00       25.00       25.00    
  32    25.00       25.00       25.00       25.00       25.00       25.00       25.00       25.00       25.00       25.00    
        25.00       25.00       25.00       25.00       25.00       25.00       25.00       25.00       25.00       25.00    
        25.00       25.00       25.00       25.00       25.00       25.00       25.00       25.00       25.00       25.00    
        25.00       25.00       25.00       25.00       25.00       25.00       25.00       25.00       25.00       25.00    
  33    25.00       25.00       25.00       25.00       25.00       25.00       25.00       25.00       25.00       25.00    
        25.00       25.00       25.00       25.00       25.00       25.00       25.00       25.00       25.00       25.00    
        25.00       25.00       25.00       25.00       25.00       25.00       25.00       25.00       25.00       25.00    
        25.00       25.00       25.00       25.00       25.00       25.00       25.00       25.00       25.00       25.00    
  34    25.00       25.00       25.00       25.00       25.00       25.00       25.00       25.00       25.00       25.00    
        25.00       25.00       25.00       25.00       25.00       25.00       25.00       25.00       25.00       25.00    
        25.00       25.00       25.00       25.00       25.00       25.00       25.00       25.00       25.00       25.00    
        25.00       25.00       25.00       25.00       25.00       25.00       25.00       25.00       25.00       25.00    
  35    25.00       25.00       25.00       25.00       25.00       25.00       25.00       25.00       25.00       25.00    
        25.00       25.00       25.00       25.00       25.00       25.00       25.00       25.00       25.00       25.00    
        25.00       25.00       25.00       25.00       25.00       25.00       25.00       25.00       25.00       25.00    
        25.00       25.00       25.00       25.00       25.00       25.00       25.00       25.00       25.00       25.00    
  36    25.00       25.00       25.00       25.00       25.00       25.00       25.00       25.00       25.00       25.00    
        25.00       25.00       25.00       25.00       25.00       25.00       25.00       25.00       25.00       25.00    
        25.00       25.00       25.00       25.00       25.00       25.00       25.00       25.00       25.00       25.00    
        25.00       25.00       25.00       25.00       25.00       25.00       25.00       25.00       25.00       25.00    
  37    25.00       25.00       25.00       25.00       25.00       25.00       25.00       25.00       25.00       25.00    
        25.00       25.00       25.00       25.00       25.00       25.00       25.00       25.00       25.00       25.00    
        25.00       25.00       25.00       25.00       25.00       25.00       25.00       25.00       25.00       25.00    
        25.00       25.00       25.00       25.00       25.00       25.00       25.00       25.00       25.00       25.00    
  38    25.00       25.00       25.00       25.00       25.00       25.00       25.00       25.00       25.00       25.00    
        25.00       25.00       25.00       25.00       25.00       25.00       25.00       25.00       25.00       25.00    
        25.00       25.00       25.00       25.00       25.00       25.00       25.00       25.00       25.00       25.00    
        25.00       25.00       25.00       25.00       25.00       25.00       25.00       25.00       25.00       25.00    
  39    25.00       25.00       25.00       25.00       25.00       25.00       25.00       25.00       25.00       25.00    
        25.00       25.00       25.00       25.00       25.00       25.00       25.00       25.00       25.00       25.00    
        25.00       25.00       25.00       25.00       25.00       25.00       25.00       25.00       25.00       25.00    
        25.00       25.00       25.00       25.00       25.00       25.00       25.00       25.00       25.00       25.00    
  40    25.00       25.00       25.00       25.00       25.00       25.00       25.00       25.00       25.00       25.00    
        25.00       25.00       25.00       25.00       25.00       25.00       25.00       25.00       25.00       25.00    
        25.00       25.00       25.00       25.00       25.00       25.00       25.00       25.00       25.00       25.00    
        25.00       25.00       25.00       25.00       25.00       25.00       25.00       25.00       25.00       25.00    
1
              HEAD IN LAYER  14 AT END OF TIME STEP  10 IN STRESS PERIOD    1
  ---------------------------------------------------------------------------

            1           2           3           4           5           6           7           8           9          10
           11          12          13          14          15          16          17          18          19          20
           21          22          23          24          25          26          27          28          29          30
           31          32          33          34          35          36          37          38          39          40
 ........................................................................................................................
   1    38.56       36.87       33.37       30.46       28.39       27.04       26.20       25.69       25.39       25.22    
        25.12       25.06       25.04       25.02       25.01       25.01       25.01       25.01       25.01       25.00    
        25.00       25.00       25.00       25.00       25.00       25.00       25.00       25.00       25.00       25.00    
        25.00       25.00       25.00       25.00       25.00       25.00       25.00       25.00       25.00       25.00    
   2    36.87       35.38       32.36       29.83       28.05       26.86       26.10       25.64       25.36       25.20    
        25.11       25.06       25.03       25.02       25.01       25.01       25.01       25.01       25.01       25.00    
        25.00       25.00       25.00       25.00       25.00       25.00       25.00       25.00       25.00       25.00    
        25.00       25.00       25.00       25.00       25.00       25.00       25.00       25.00       25.00       25.00    
   3    33.37       32.36       30.52       28.80       27.47       26.54       25.93       25.55       25.32       25.18    
        25.10       25.05       25.03       25.02       25.01       25.01       25.01       25.01       25.01       25.00    
        25.00       25.00       25.00       25.00       25.00       25.00       25.00       25.00       25.00       25.00    
        25.00       25.00       25.00       25.00       25.00       25.00       25.00       25.00       25.00       25.00    
   4    30.46       29.83       28.80       27.73       26.84       26.18       25.73       25.44       25.26       25.15    
        25.08       25.05       25.03       25.01       25.01       25.01       25.01       25.01       25.01       25.00    
        25.00       25.00       25.00       25.00       25.00       25.00       25.00       25.00       25.00       25.00    
        25.00       25.00       25.00       25.00       25.00       25.00       25.00       25.00       25.00       25.00    
   5    28.39       28.05       27.47       26.84       26.29       25.85       25.54       25.33       25.20       25.12    
        25.07       25.04       25.02       25.01       25.01       25.01       25.01       25.01       25.01       25.00    
        25.00       25.00       25.00       25.00       25.00       25.00       25.00       25.00       25.00       25.00    
        25.00       25.00       25.00       25.00       25.00       25.00       25.00       25.00       25.00       25.00    
   6    27.04       26.86       26.54       26.18       25.85       25.58       25.38       25.24       25.15       25.09    
        25.05       25.03       25.02       25.01       25.01       25.01       25.01       25.01       25.00       25.00    
        25.00       25.00       25.00       25.00       25.00       25.00       25.00       25.00       25.00       25.00    
        25.00       25.00       25.00       25.00       25.00       25.00       25.00       25.00       25.00       25.00    
   7    26.20       26.10       25.93       25.73       25.54       25.38       25.25       25.16       25.10       25.06    
        25.04       25.02       25.01       25.01       25.01       25.01       25.01       25.01       25.00       25.00    
        25.00       25.00       25.00       25.00       25.00       25.00       25.00       25.00       25.00       25.00    
        25.00       25.00       25.00       25.00       25.00       25.00       25.00       25.00       25.00       25.00    
   8    25.69       25.64       25.55       25.44       25.33       25.24       25.16       25.11       25.07       25.04    
        25.03       25.02       25.01       25.01       25.01       25.01       25.01       25.01       25.00       25.00    
        25.00       25.00       25.00       25.00       25.00       25.00       25.00       25.00       25.00       25.00    
        25.00       25.00       25.00       25.00       25.00       25.00       25.00       25.00       25.00       25.00    
   9    25.39       25.36       25.32       25.26       25.20       25.15       25.10       25.07       25.04       25.03    
        25.02       25.01       25.01       25.01       25.01       25.01       25.01       25.00       25.00       25.00    
        25.00       25.00       25.00       25.00       25.00       25.00       25.00       25.00       25.00       25.00    
        25.00       25.00       25.00       25.00       25.00       25.00       25.00       25.00       25.00       25.00    
  10    25.22       25.20       25.18       25.15       25.12       25.09       25.06       25.04       25.03       25.02    
        25.01       25.01       25.01       25.01       25.01       25.01       25.01       25.00       25.00       25.00    
        25.00       25.00       25.00       25.00       25.00       25.00       25.00       25.00       25.00       25.00    
        25.00       25.00       25.00       25.00       25.00       25.00       25.00       25.00       25.00       25.00    
  11    25.12       25.11       25.10       25.08       25.07       25.05       25.04       25.03       25.02       25.01    
        25.01       25.01       25.01       25.01       25.01       25.01       25.00       25.00       25.00       25.00    
        25.00       25.00       25.00       25.00       25.00       25.00       25.00       25.00       25.00       25.00    
        25.00       25.00       25.00       25.00       25.00       25.00       25.00       25.00       25.00       25.00    
  12    25.06       25.06       25.05       25.05       25.04       25.03       25.02       25.02       25.01       25.01    
        25.01       25.01       25.01       25.01       25.01       25.01       25.00       25.00       25.00       25.00    
        25.00       25.00       25.00       25.00       25.00       25.00       25.00       25.00       25.00       25.00    
        25.00       25.00       25.00       25.00       25.00       25.00       25.00       25.00       25.00       25.00    
  13    25.04       25.03       25.03       25.03       25.02       25.02       25.01       25.01       25.01       25.01    
        25.01       25.01       25.01       25.01       25.01       25.00       25.00       25.00       25.00       25.00    
        25.00       25.00       25.00       25.00       25.00       25.00       25.00       25.00       25.00       25.00    
        25.00       25.00       25.00       25.00       25.00       25.00       25.00       25.00       25.00       25.00    
  14    25.02       25.02       25.02       25.01       25.01       25.01       25.01       25.01       25.01       25.01    
        25.01       25.01       25.01       25.01       25.00       25.00       25.00       25.00       25.00       25.00    
        25.00       25.00       25.00       25.00       25.00       25.00       25.00       25.00       25.00       25.00    
        25.00       25.00       25.00       25.00       25.00       25.00       25.00       25.00       25.00       25.00    
  15    25.01       25.01       25.01       25.01       25.01       25.01       25.01       25.01       25.01       25.01    
        25.01       25.01       25.01       25.00       25.00       25.00       25.00       25.00       25.00       25.00    
        25.00       25.00       25.00       25.00       25.00       25.00       25.00       25.00       25.00       25.00    
        25.00       25.00       25.00       25.00       25.00       25.00       25.00       25.00       25.00       25.00    
  16    25.01       25.01       25.01       25.01       25.01       25.01       25.01       25.01       25.01       25.01    
        25.01       25.01       25.00       25.00       25.00       25.00       25.00       25.00       25.00       25.00    
        25.00       25.00       25.00       25.00       25.00       25.00       25.00       25.00       25.00       25.00    
        25.00       25.00       25.00       25.00       25.00       25.00       25.00       25.00       25.00       25.00    
  17    25.01       25.01       25.01       25.01       25.01       25.01       25.01       25.01       25.01       25.01    
        25.00       25.00       25.00       25.00       25.00       25.00       25.00       25.00       25.00       25.00    
        25.00       25.00       25.00       25.00       25.00       25.00       25.00       25.00       25.00       25.00    
        25.00       25.00       25.00       25.00       25.00       25.00       25.00       25.00       25.00       25.00    
  18    25.01       25.01       25.01       25.01       25.01       25.01       25.01       25.01       25.00       25.00    
        25.00       25.00       25.00       25.00       25.00       25.00       25.00       25.00       25.00       25.00    
        25.00       25.00       25.00       25.00       25.00       25.00       25.00       25.00       25.00       25.00    
        25.00       25.00       25.00       25.00       25.00       25.00       25.00       25.00       25.00       25.00    
  19    25.01       25.01       25.01       25.01       25.01       25.00       25.00       25.00       25.00       25.00    
        25.00       25.00       25.00       25.00       25.00       25.00       25.00       25.00       25.00       25.00    
        25.00       25.00       25.00       25.00       25.00       25.00       25.00       25.00       25.00       25.00    
        25.00       25.00       25.00       25.00       25.00       25.00       25.00       25.00       25.00       25.00    
  20    25.00       25.00       25.00       25.00       25.00       25.00       25.00       25.00       25.00       25.00    
        25.00       25.00       25.00       25.00       25.00       25.00       25.00       25.00       25.00       25.00    
        25.00       25.00       25.00       25.00       25.00       25.00       25.00       25.00       25.00       25.00    
        25.00       25.00       25.00       25.00       25.00       25.00       25.00       25.00       25.00       25.00    
  21    25.00       25.00       25.00       25.00       25.00       25.00       25.00       25.00       25.00       25.00    
        25.00       25.00       25.00       25.00       25.00       25.00       25.00       25.00       25.00       25.00    
        25.00       25.00       25.00       25.00       25.00       25.00       25.00       25.00       25.00       25.00    
        25.00       25.00       25.00       25.00       25.00       25.00       25.00       25.00       25.00       25.00    
  22    25.00       25.00       25.00       25.00       25.00       25.00       25.00       25.00       25.00       25.00    
        25.00       25.00       25.00       25.00       25.00       25.00       25.00       25.00       25.00       25.00    
        25.00       25.00       25.00       25.00       25.00       25.00       25.00       25.00       25.00       25.00    
        25.00       25.00       25.00       25.00       25.00       25.00       25.00       25.00       25.00       25.00    
  23    25.00       25.00       25.00       25.00       25.00       25.00       25.00       25.00       25.00       25.00    
        25.00       25.00       25.00       25.00       25.00       25.00       25.00       25.00       25.00       25.00    
        25.00       25.00       25.00       25.00       25.00       25.00       25.00       25.00       25.00       25.00    
        25.00       25.00       25.00       25.00       25.00       25.00       25.00       25.00       25.00       25.00    
  24    25.00       25.00       25.00       25.00       25.00       25.00       25.00       25.00       25.00       25.00    
        25.00       25.00       25.00       25.00       25.00       25.00       25.00       25.00       25.00       25.00    
        25.00       25.00       25.00       25.00       25.00       25.00       25.00       25.00       25.00       25.00    
        25.00       25.00       25.00       25.00       25.00       25.00       25.00       25.00       25.00       25.00    
  25    25.00       25.00       25.00       25.00       25.00       25.00       25.00       25.00       25.00       25.00    
        25.00       25.00       25.00       25.00       25.00       25.00       25.00       25.00       25.00       25.00    
        25.00       25.00       25.00       25.00       25.00       25.00       25.00       25.00       25.00       25.00    
        25.00       25.00       25.00       25.00       25.00       25.00       25.00       25.00       25.00       25.00    
  26    25.00       25.00       25.00       25.00       25.00       25.00       25.00       25.00       25.00       25.00    
        25.00       25.00       25.00       25.00       25.00       25.00       25.00       25.00       25.00       25.00    
        25.00       25.00       25.00       25.00       25.00       25.00       25.00       25.00       25.00       25.00    
        25.00       25.00       25.00       25.00       25.00       25.00       25.00       25.00       25.00       25.00    
  27    25.00       25.00       25.00       25.00       25.00       25.00       25.00       25.00       25.00       25.00    
        25.00       25.00       25.00       25.00       25.00       25.00       25.00       25.00       25.00       25.00    
        25.00       25.00       25.00       25.00       25.00       25.00       25.00       25.00       25.00       25.00    
        25.00       25.00       25.00       25.00       25.00       25.00       25.00       25.00       25.00       25.00    
  28    25.00       25.00       25.00       25.00       25.00       25.00       25.00       25.00       25.00       25.00    
        25.00       25.00       25.00       25.00       25.00       25.00       25.00       25.00       25.00       25.00    
        25.00       25.00       25.00       25.00       25.00       25.00       25.00       25.00       25.00       25.00    
        25.00       25.00       25.00       25.00       25.00       25.00       25.00       25.00       25.00       25.00    
  29    25.00       25.00       25.00       25.00       25.00       25.00       25.00       25.00       25.00       25.00    
        25.00       25.00       25.00       25.00       25.00       25.00       25.00       25.00       25.00       25.00    
        25.00       25.00       25.00       25.00       25.00       25.00       25.00       25.00       25.00       25.00    
        25.00       25.00       25.00       25.00       25.00       25.00       25.00       25.00       25.00       25.00    
  30    25.00       25.00       25.00       25.00       25.00       25.00       25.00       25.00       25.00       25.00    
        25.00       25.00       25.00       25.00       25.00       25.00       25.00       25.00       25.00       25.00    
        25.00       25.00       25.00       25.00       25.00       25.00       25.00       25.00       25.00       25.00    
        25.00       25.00       25.00       25.00       25.00       25.00       25.00       25.00       25.00       25.00    
  31    25.00       25.00       25.00       25.00       25.00       25.00       25.00       25.00       25.00       25.00    
        25.00       25.00       25.00       25.00       25.00       25.00       25.00       25.00       25.00       25.00    
        25.00       25.00       25.00       25.00       25.00       25.00       25.00       25.00       25.00       25.00    
        25.00       25.00       25.00       25.00       25.00       25.00       25.00       25.00       25.00       25.00    
  32    25.00       25.00       25.00       25.00       25.00       25.00       25.00       25.00       25.00       25.00    
        25.00       25.00       25.00       25.00       25.00       25.00       25.00       25.00       25.00       25.00    
        25.00       25.00       25.00       25.00       25.00       25.00       25.00       25.00       25.00       25.00    
        25.00       25.00       25.00       25.00       25.00       25.00       25.00       25.00       25.00       25.00    
  33    25.00       25.00       25.00       25.00       25.00       25.00       25.00       25.00       25.00       25.00    
        25.00       25.00       25.00       25.00       25.00       25.00       25.00       25.00       25.00       25.00    
        25.00       25.00       25.00       25.00       25.00       25.00       25.00       25.00       25.00       25.00    
        25.00       25.00       25.00       25.00       25.00       25.00       25.00       25.00       25.00       25.00    
  34    25.00       25.00       25.00       25.00       25.00       25.00       25.00       25.00       25.00       25.00    
        25.00       25.00       25.00       25.00       25.00       25.00       25.00       25.00       25.00       25.00    
        25.00       25.00       25.00       25.00       25.00       25.00       25.00       25.00       25.00       25.00    
        25.00       25.00       25.00       25.00       25.00       25.00       25.00       25.00       25.00       25.00    
  35    25.00       25.00       25.00       25.00       25.00       25.00       25.00       25.00       25.00       25.00    
        25.00       25.00       25.00       25.00       25.00       25.00       25.00       25.00       25.00       25.00    
        25.00       25.00       25.00       25.00       25.00       25.00       25.00       25.00       25.00       25.00    
        25.00       25.00       25.00       25.00       25.00       25.00       25.00       25.00       25.00       25.00    
  36    25.00       25.00       25.00       25.00       25.00       25.00       25.00       25.00       25.00       25.00    
        25.00       25.00       25.00       25.00       25.00       25.00       25.00       25.00       25.00       25.00    
        25.00       25.00       25.00       25.00       25.00       25.00       25.00       25.00       25.00       25.00    
        25.00       25.00       25.00       25.00       25.00       25.00       25.00       25.00       25.00       25.00    
  37    25.00       25.00       25.00       25.00       25.00       25.00       25.00       25.00       25.00       25.00    
        25.00       25.00       25.00       25.00       25.00       25.00       25.00       25.00       25.00       25.00    
        25.00       25.00       25.00       25.00       25.00       25.00       25.00       25.00       25.00       25.00    
        25.00       25.00       25.00       25.00       25.00       25.00       25.00       25.00       25.00       25.00    
  38    25.00       25.00       25.00       25.00       25.00       25.00       25.00       25.00       25.00       25.00    
        25.00       25.00       25.00       25.00       25.00       25.00       25.00       25.00       25.00       25.00    
        25.00       25.00       25.00       25.00       25.00       25.00       25.00       25.00       25.00       25.00    
        25.00       25.00       25.00       25.00       25.00       25.00       25.00       25.00       25.00       25.00    
  39    25.00       25.00       25.00       25.00       25.00       25.00       25.00       25.00       25.00       25.00    
        25.00       25.00       25.00       25.00       25.00       25.00       25.00       25.00       25.00       25.00    
        25.00       25.00       25.00       25.00       25.00       25.00       25.00       25.00       25.00       25.00    
        25.00       25.00       25.00       25.00       25.00       25.00       25.00       25.00       25.00       25.00    
  40    25.00       25.00       25.00       25.00       25.00       25.00       25.00       25.00       25.00       25.00    
        25.00       25.00       25.00       25.00       25.00       25.00       25.00       25.00       25.00       25.00    
        25.00       25.00       25.00       25.00       25.00       25.00       25.00       25.00       25.00       25.00    
        25.00       25.00       25.00       25.00       25.00       25.00       25.00       25.00       25.00       25.00    
1
  VOLUMETRIC BUDGET FOR ENTIRE MODEL AT END OF TIME STEP 10 IN STRESS PERIOD   1
  ------------------------------------------------------------------------------

     CUMULATIVE VOLUMES      L**3       RATES FOR THIS TIME STEP      L**3/T
     ------------------                 ------------------------

           IN:                                      IN:
           ---                                      ---
             STORAGE =           0.1563               STORAGE =           0.0000
       CONSTANT HEAD =           0.1397         CONSTANT HEAD =           0.0000
            RECHARGE =      593750.0000              RECHARGE =        3125.0000

            TOTAL IN =      593750.3125              TOTAL IN =        3125.0000

          OUT:                                     OUT:
          ----                                     ----
             STORAGE =      593731.7500               STORAGE =        3124.5493
       CONSTANT HEAD =          20.7728         CONSTANT HEAD =           0.4702
            RECHARGE =           0.0000              RECHARGE =           0.0000

           TOTAL OUT =      593752.5000             TOTAL OUT =        3125.0195

            IN - OUT =          -2.1875              IN - OUT =      -1.9531E-02

 PERCENT DISCREPANCY =           0.00     PERCENT DISCREPANCY =           0.00






          TIME SUMMARY AT END OF TIME STEP  10 IN STRESS PERIOD    1
                    SECONDS     MINUTES      HOURS       DAYS        YEARS
                    -----------------------------------------------------------
   TIME STEP LENGTH 1.64160E+06  27360.      456.00      19.000     5.20192E-02
 STRESS PERIOD TIME 1.64160E+07 2.73600E+05  4560.0      190.00     0.52019    
         TOTAL TIME 1.64160E+07 2.73600E+05  4560.0      190.00     0.52019    
1
1
                            STRESS PERIOD NO.    2, LENGTH =   518.0000    
                            -----------------------------------------------

                              NUMBER OF TIME STEPS =     2

                               MULTIPLIER FOR DELT =     1.000

                            INITIAL TIME STEP SIZE =   259.0000    

 REUSING RECH FROM LAST STRESS PERIOD
 
 SOLVING FOR HEAD 

 CELL CONVERSIONS FOR ITER.=  2  LAYER=  5  STEP=  1  PERIOD=   2   (ROW,COL)
    WET(  1,  1)   

 CELL CONVERSIONS FOR ITER.=  2  LAYER=  6  STEP=  1  PERIOD=   2   (ROW,COL)
    WET(  1,  2)   WET(  2,  1)   WET(  2,  2)   

 CELL CONVERSIONS FOR ITER.=  2  LAYER=  7  STEP=  1  PERIOD=   2   (ROW,COL)
    WET(  1,  3)   WET(  2,  3)   WET(  3,  1)   WET(  3,  2)   

 CELL CONVERSIONS FOR ITER.=  2  LAYER=  8  STEP=  1  PERIOD=   2   (ROW,COL)
    WET(  1,  4)   WET(  1,  5)   WET(  2,  4)   WET(  2,  5)   WET(  3,  4)   
    WET(  3,  5)   WET(  4,  1)   WET(  4,  2)   WET(  4,  3)   WET(  4,  4)   
    WET(  5,  1)   WET(  5,  2)   WET(  5,  3)   


     7 CALLS TO PCG ROUTINE FOR TIME STEP   1 IN STRESS PERIOD    2
    82 TOTAL ITERATIONS

 MAXIMUM HEAD CHANGE FOR EACH ITERATION (1 INDICATES THE FIRST INNER ITERATION):

    HEAD CHANGE    HEAD CHANGE    HEAD CHANGE    HEAD CHANGE    HEAD CHANGE 
   LAYER,ROW,COL  LAYER,ROW,COL  LAYER,ROW,COL  LAYER,ROW,COL  LAYER,ROW,COL
 ---------------------------------------------------------------------------
  1   6.171      0  0.9747      0  0.3307      0  0.1180      0  0.8302E-01
   (  7,  2,  1)  ( 12,  6,  1)  ( 10,  8,  1)  ( 14, 24,  3)  (  6,  1,  1)
  0  0.4997E-01  0  0.5911E-01  0 -0.1939E-01  0 -0.1367E-01  0 -0.7047E-02
   (  7,  2,  2)  (  7,  2,  2)  ( 14, 26, 26)  ( 14,  2,  2)  ( 12,  2,  2)
  0  0.4546E-02  0  0.3450E-02  0  0.1802E-02  0 -0.1868E-02  0 -0.1054E-02
   ( 11,  3,  3)  ( 10, 28,  3)  ( 10,  2, 31)  ( 14,  3,  3)  ( 14,  3,  3)
  0 -0.9621E-03  0 -0.7564E-03  0 -0.2428E-03  0 -0.1321E-03  0 -0.7644E-04
   ( 14, 12, 28)  ( 14, 12, 21)  ( 14, 20, 16)  ( 14, 29, 29)  ( 14, 23, 13)
  1  -4.147      0   2.215      0  0.7826      0  0.2582      0  0.3222E-01
   (  7,  2,  1)  ( 14,  2,  2)  ( 14,  1,  1)  ( 14,  3,  3)  (  8,  2,  2)
  0  0.5812E-01  0  0.1941E-01  0  0.1483E-01  0  0.1241E-01  0  0.3602E-02
   ( 14,  1,  5)  ( 14,  1,  5)  (  5,  1,  1)  (  5,  1,  1)  (  5,  1,  1)
  0  0.3498E-02  0 -0.1416E-02  0  0.1075E-02  0  0.7779E-03  0  0.8576E-03
   (  5,  1,  1)  ( 14, 21, 21)  ( 14,  1,  6)  (  5,  1,  1)  (  5,  1,  1)
  0  0.8378E-03  0  0.4604E-03  0  0.2535E-03  0  0.1188E-03  0  0.8937E-04
   (  5,  1,  1)  ( 14,  2, 23)  ( 14, 12, 23)  ( 14, 20, 17)  ( 14, 19, 19)
  1 -0.7064      0 -0.2880      0 -0.2420      0  0.9350E-01  0  0.1292E-01
   (  6,  1,  1)  (  6,  1,  1)  (  7,  2,  2)  ( 13,  2,  2)  ( 10,  3,  3)
  0  0.1843E-01  0  0.5164E-02  0  0.7896E-02  0 -0.2274E-02  0 -0.2966E-02
   ( 10,  3,  3)  ( 14,  1,  1)  ( 14,  1,  1)  ( 14, 28,  4)  (  6,  1,  1)
  0 -0.1142E-02  0 -0.1053E-02  0 -0.3462E-03  0 -0.1921E-03  0 -0.3008E-03
   (  6,  1,  1)  ( 14,  3,  3)  ( 14,  3,  3)  ( 14, 22, 22)  (  8,  1,  4)
  0 -0.8117E-04  1  0.7871E-01  0  0.5025E-01  0  0.8615E-02  0  0.7236E-02
   ( 14, 28, 28)  (  6,  1,  1)  (  6,  1,  2)  (  7,  2,  2)  (  7,  2,  2)
  0 -0.4081E-02  0 -0.5601E-02  0 -0.1616E-02  0 -0.1513E-02  0 -0.3870E-03
   ( 13,  2,  2)  ( 11,  2,  2)  ( 14,  1,  4)  ( 14,  1,  5)  ( 14,  1,  6)
  0  0.5121E-03  0  0.1809E-03  0  0.1968E-03  0  0.1215E-03  0  0.5114E-04
   ( 12,  4,  1)  ( 10,  1,  4)  (  9,  3,  3)  (  8,  3,  3)  ( 14, 24,  2)
  1 -0.7305E-02  0 -0.2091E-02  0 -0.8808E-03  0  0.3381E-03  0  0.6051E-03
   (  6,  1,  1)  (  6,  1,  1)  (  6,  1,  1)  ( 14,  1,  2)  ( 14,  1,  3)
  0  0.1430E-03  0  0.1503E-03  0  0.7720E-04  1  0.1754E-03  0  0.1237E-03
   ( 13,  2,  2)  ( 12,  2,  2)  ( 14,  4,  4)  (  7,  1,  1)  (  7,  1,  1)
  0  0.4795E-04  1 -0.2210E-04
   (  6,  1,  1)  ( 14, 29, 29)

 MAXIMUM RESIDUAL FOR EACH ITERATION (1 INDICATES THE FIRST INNER ITERATION):

    RESIDUAL       RESIDUAL       RESIDUAL       RESIDUAL       RESIDUAL    
   LAYER,ROW,COL  LAYER,ROW,COL  LAYER,ROW,COL  LAYER,ROW,COL  LAYER,ROW,COL
 ---------------------------------------------------------------------------
  1  -67.10      0  -32.13      0  -10.95      0  -7.627      0  -7.463    
   (  7,  2,  2)  (  9,  2,  4)  (  8,  1,  3)  (  6,  1,  1)  ( 11,  2,  2)
  0  -4.166      0   2.216      0   1.755      0  0.8387      0  0.6280    
   ( 11,  2,  2)  ( 14,  3,  3)  ( 14,  2,  2)  ( 14,  2,  4)  ( 14,  2,  4)
  0  0.3959      0  0.3563      0  0.2640      0  0.1460      0  0.1194    
   ( 14,  1,  2)  ( 14,  1,  2)  ( 14,  2,  2)  ( 14,  1,  4)  ( 14,  1,  4)
  0 -0.7346E-01  0 -0.3278E-01  0 -0.2362E-01  0 -0.1847E-01  0 -0.1301E-01
   ( 12,  3,  3)  ( 11,  3,  3)  (  7,  2,  2)  (  7,  2,  2)  (  7,  2,  2)
  1  -137.3      0   41.17      0  -19.97      0  -14.09      0  -12.69    
   ( 14,  2,  2)  (  7,  2,  2)  (  8,  2,  2)  (  7,  1,  1)  (  7,  1,  1)
  0  -9.504      0  -7.975      0  -6.100      0  -4.428      0  -3.673    
   (  7,  1,  1)  (  7,  1,  1)  (  7,  1,  1)  (  7,  1,  1)  (  7,  1,  1)
  0  -2.557      0  -1.999      0  -1.389      0 -0.9898      0 -0.6359    
   (  7,  1,  1)  (  7,  1,  1)  (  7,  1,  1)  (  7,  1,  1)  (  7,  1,  1)
  0 -0.3153      0 -0.1689      0 -0.9805E-01  0 -0.6061E-01  0 -0.4696E-01
   (  7,  1,  1)  (  7,  1,  1)  (  7,  1,  1)  (  7,  1,  1)  (  7,  1,  1)
  1   104.7      0   77.49      0   18.10      0   6.206      0   4.835    
   (  7,  2,  2)  (  7,  2,  2)  (  7,  2,  2)  (  8,  1,  3)  (  8,  1,  3)
  0  -3.269      0  -2.736      0  -1.728      0  -1.296      0 -0.6792    
   (  8,  2,  2)  (  8,  2,  2)  (  8,  2,  2)  (  8,  2,  2)  (  8,  2,  2)
  0 -0.4705      0 -0.2883      0 -0.2215      0 -0.1779      0 -0.1089    
   (  8,  2,  2)  (  8,  2,  2)  (  8,  2,  2)  (  8,  2,  2)  (  8,  2,  2)
  0 -0.7821E-01  1  -9.578      0  -4.875      0  -3.237      0  -1.512    
   (  8,  2,  2)  (  7,  2,  2)  (  7,  2,  2)  (  7,  2,  2)  (  7,  2,  2)
  0  -1.111      0 -0.7449      0 -0.5136      0 -0.2664      0  0.1652    
   (  7,  2,  2)  (  7,  2,  2)  (  7,  2,  2)  (  7,  2,  2)  (  8,  2,  2)
  0  0.1196      0  0.9412E-01  0  0.6490E-01  0  0.4613E-01  0  0.3764E-01
   (  8,  2,  2)  (  8,  2,  2)  (  8,  2,  2)  (  8,  2,  2)  (  8,  2,  2)
  1  0.8479      0  0.5044      0  0.3166      0  0.2207      0  0.9619E-01
   (  6,  1,  1)  (  6,  1,  1)  (  6,  1,  1)  (  6,  1,  1)  (  7,  2,  2)
  0  0.7382E-01  0  0.5175E-01  0  0.3803E-01  1  0.4108E-01  0  0.3238E-01
   (  7,  2,  2)  (  7,  2,  2)  (  7,  2,  2)  (  6,  2,  2)  (  6,  2,  2)
  0  0.2548E-01  1  0.2270E-01
   (  6,  2,  2)  (  6,  2,  2)



 NO OUTPUT CONTROL FOR STRESS PERIOD    2   TIME STEP   1
 
 SOLVING FOR HEAD 

 CELL CONVERSIONS FOR ITER.=  2  LAYER=  5  STEP=  2  PERIOD=   2   (ROW,COL)
    WET(  1,  2)   WET(  2,  1)   WET(  2,  2)   

 CELL CONVERSIONS FOR ITER.=  2  LAYER=  7  STEP=  2  PERIOD=   2   (ROW,COL)
    WET(  1,  4)   WET(  2,  4)   WET(  3,  3)   WET(  4,  1)   WET(  4,  2)   

 CELL CONVERSIONS FOR ITER.=  2  LAYER=  8  STEP=  2  PERIOD=   2   (ROW,COL)
    WET(  1,  6)   WET(  1,  7)   WET(  2,  6)   WET(  3,  6)   WET(  4,  5)   
    WET(  4,  6)   WET(  5,  4)   WET(  5,  5)   WET(  6,  1)   WET(  6,  2)   
    WET(  6,  3)   WET(  6,  4)   WET(  7,  1)   

 CELL CONVERSIONS FOR ITER.=  2  LAYER=  9  STEP=  2  PERIOD=   2   (ROW,COL)
    WET(  1, 17)   WET(  1, 18)   WET(  1, 19)   WET(  1, 20)   WET(  1, 21)   
    WET(  1, 22)   WET(  2, 17)   WET(  2, 18)   WET(  2, 19)   WET(  2, 20)   
    WET(  2, 21)   WET(  2, 22)   WET(  3, 16)   WET(  3, 17)   WET(  3, 18)   
    WET(  3, 19)   WET(  3, 20)   WET(  3, 21)   WET(  3, 22)   WET(  4, 16)   
    WET(  4, 17)   WET(  4, 18)   WET(  4, 19)   WET(  4, 20)   WET(  4, 21)   
    WET(  4, 22)   WET(  5, 16)   WET(  5, 17)   WET(  5, 18)   WET(  5, 19)   
    WET(  5, 20)   WET(  5, 21)   WET(  5, 22)   WET(  6, 15)   WET(  6, 16)   
    WET(  6, 17)   WET(  6, 18)   WET(  6, 19)   WET(  6, 20)   WET(  6, 21)   
    WET(  6, 22)   WET(  7, 15)   WET(  7, 16)   WET(  7, 17)   WET(  7, 18)   
    WET(  7, 19)   WET(  7, 20)   WET(  7, 21)   WET(  8, 14)   WET(  8, 15)   
    WET(  8, 16)   WET(  8, 17)   WET(  8, 18)   WET(  8, 19)   WET(  8, 20)   
    WET(  8, 21)   WET(  9, 14)   WET(  9, 15)   WET(  9, 16)   WET(  9, 17)   
    WET(  9, 18)   WET(  9, 19)   WET(  9, 20)   WET(  9, 21)   WET( 10, 13)   
    WET( 10, 14)   WET( 10, 15)   WET( 10, 16)   WET( 10, 17)   WET( 10, 18)   
    WET( 10, 19)   WET( 10, 20)   WET( 11, 12)   WET( 11, 13)   WET( 11, 14)   
    WET( 11, 15)   WET( 11, 16)   WET( 11, 17)   WET( 11, 18)   WET( 11, 19)   
    WET( 11, 20)   WET( 12, 11)   WET( 12, 12)   WET( 12, 13)   WET( 12, 14)   
    WET( 12, 15)   WET( 12, 16)   WET( 12, 17)   WET( 12, 18)   WET( 12, 19)   
    WET( 13, 10)   WET( 13, 11)   WET( 13, 12)   WET( 13, 13)   WET( 13, 14)   
    WET( 13, 15)   WET( 13, 16)   WET( 13, 17)   WET( 13, 18)   WET( 13, 19)   
    WET( 14,  8)   WET( 14,  9)   WET( 14, 10)   WET( 14, 11)   WET( 14, 12)   
    WET( 14, 13)   WET( 14, 14)   WET( 14, 15)   WET( 14, 16)   WET( 14, 17)   
    WET( 14, 18)   WET( 15,  6)   WET( 15,  7)   WET( 15,  8)   WET( 15,  9)   
    WET( 15, 10)   WET( 15, 11)   WET( 15, 12)   WET( 15, 13)   WET( 15, 14)   
    WET( 15, 15)   WET( 15, 16)   WET( 15, 17)   WET( 16,  3)   WET( 16,  4)   
    WET( 16,  5)   WET( 16,  6)   WET( 16,  7)   WET( 16,  8)   WET( 16,  9)   
    WET( 16, 10)   WET( 16, 11)   WET( 16, 12)   WET( 16, 13)   WET( 16, 14)   
    WET( 16, 15)   WET( 16, 16)   WET( 17,  1)   WET( 17,  2)   WET( 17,  3)   
    WET( 17,  4)   WET( 17,  5)   WET( 17,  6)   WET( 17,  7)   WET( 17,  8)   
    WET( 17,  9)   WET( 17, 10)   WET( 17, 11)   WET( 17, 12)   WET( 17, 13)   
    WET( 17, 14)   WET( 17, 15)   WET( 18,  1)   WET( 18,  2)   WET( 18,  3)   
    WET( 18,  4)   WET( 18,  5)   WET( 18,  6)   WET( 18,  7)   WET( 18,  8)   
    WET( 18,  9)   WET( 18, 10)   WET( 18, 11)   WET( 18, 12)   WET( 18, 13)   
    WET( 18, 14)   WET( 19,  1)   WET( 19,  2)   WET( 19,  3)   WET( 19,  4)   
    WET( 19,  5)   WET( 19,  6)   WET( 19,  7)   WET( 19,  8)   WET( 19,  9)   
    WET( 19, 10)   WET( 19, 11)   WET( 19, 12)   WET( 19, 13)   WET( 20,  1)   
    WET( 20,  2)   WET( 20,  3)   WET( 20,  4)   WET( 20,  5)   WET( 20,  6)   
    WET( 20,  7)   WET( 20,  8)   WET( 20,  9)   WET( 20, 10)   WET( 20, 11)   
    WET( 21,  1)   WET( 21,  2)   WET( 21,  3)   WET( 21,  4)   WET( 21,  5)   
    WET( 21,  6)   WET( 21,  7)   WET( 21,  8)   WET( 21,  9)   WET( 22,  1)   
    WET( 22,  2)   WET( 22,  3)   WET( 22,  4)   WET( 22,  5)   WET( 22,  6)   
     6 CALLS TO PCG ROUTINE FOR TIME STEP   2 IN STRESS PERIOD    2
    73 TOTAL ITERATIONS

 MAXIMUM HEAD CHANGE FOR EACH ITERATION (1 INDICATES THE FIRST INNER ITERATION):

    HEAD CHANGE    HEAD CHANGE    HEAD CHANGE    HEAD CHANGE    HEAD CHANGE 
   LAYER,ROW,COL  LAYER,ROW,COL  LAYER,ROW,COL  LAYER,ROW,COL  LAYER,ROW,COL
 ---------------------------------------------------------------------------
  1   3.219      0  0.3238      0 -0.1166      0 -0.7846E-01  0  0.4327E-01
   (  6,  1,  1)  ( 14,  9,  1)  ( 14,  1, 23)  ( 14,  1,  5)  ( 14, 33,  4)
  0  0.2885E-01  0 -0.1859E-01  0 -0.9964E-02  0  0.9313E-02  0  0.5018E-02
   ( 14, 20,  1)  ( 14,  1,  8)  ( 14,  8,  2)  ( 12,  2,  2)  ( 11,  2,  2)
  0 -0.2197E-02  0 -0.1990E-02  0 -0.1754E-02  0 -0.1741E-02  0 -0.9302E-03
   ( 14, 28, 22)  ( 14, 27, 16)  ( 14,  2,  2)  ( 14,  2, 28)  ( 14,  4, 24)
  0 -0.4715E-03  0 -0.2934E-03  0 -0.1437E-03  0 -0.6875E-04  1  -2.286    
   ( 14,  9, 24)  ( 14, 18, 18)  ( 14, 10, 22)  ( 14, 11, 11)  ( 14,  2,  2)
  0   1.499      0  0.3622      0  0.1756      0  0.8764E-01  0  0.6388E-01
   ( 14,  2,  2)  ( 14,  1,  1)  ( 14,  1,  3)  ( 12,  3,  2)  ( 12,  2,  3)
  0  0.1703E-01  0 -0.1683E-01  0  0.9943E-02  0 -0.9420E-02  0 -0.6593E-02
   ( 14, 27,  2)  ( 14,  2,  3)  ( 14, 31, 31)  ( 12,  1,  4)  ( 13,  4,  1)
  0 -0.2929E-02  0 -0.2912E-02  0 -0.9394E-03  0 -0.6376E-03  0 -0.3508E-03
   ( 14,  4,  4)  ( 14,  3,  3)  ( 14,  2, 32)  ( 14,  1,  1)  ( 14,  4,  1)
  0  0.3844E-03  0  0.3389E-03  0  0.1660E-03  0  0.1265E-03  1 -0.1978    
   (  6,  1,  1)  (  6,  1,  1)  (  6,  1,  1)  ( 10,  3,  3)  (  5,  1,  1)
  0 -0.1609      0  0.5178E-01  0  0.1671E-01  0  0.2034E-01  0  0.1370E-01
   ( 14,  2,  2)  (  5,  2,  2)  ( 14,  1,  4)  ( 14,  1,  4)  ( 14,  3,  3)
  0  0.5908E-02  0 -0.3884E-02  0 -0.1388E-02  0 -0.1473E-02  0 -0.5321E-03
   ( 13,  3,  3)  (  9,  3,  3)  (  9,  3,  3)  ( 14,  1,  1)  ( 14,  1,  5)
  0 -0.3804E-03  0 -0.4298E-03  0 -0.1297E-03  0 -0.1300E-03  0 -0.6584E-04
   ( 14,  4,  4)  ( 14,  4,  4)  ( 14, 28, 28)  ( 14,  2,  2)  (  5,  1,  1)
  1  0.2150E-01  0  0.1141E-01  0  0.4443E-02  0  0.2285E-02  0 -0.1604E-02
   (  5,  1,  1)  (  5,  1,  1)  (  7,  2,  2)  (  7,  2,  2)  ( 14,  2,  3)
  0 -0.1030E-02  0 -0.5226E-03  0 -0.4651E-03  0 -0.1708E-03  0  0.1793E-03
   (  9,  2,  2)  ( 11,  1,  4)  ( 11,  1,  4)  ( 14, 30,  3)  ( 14,  1,  4)
  0 -0.6483E-04  1 -0.1829E-02  0 -0.5396E-03  0 -0.4871E-03  0  0.2707E-03
   ( 14, 30, 20)  (  5,  1,  1)  (  5,  1,  1)  (  5,  1,  1)  (  5,  2,  2)
  0  0.2161E-03  0  0.6042E-04  1 -0.2427E-04
   ( 14,  2,  2)  ( 14,  2,  2)  ( 14, 33, 33)

 MAXIMUM RESIDUAL FOR EACH ITERATION (1 INDICATES THE FIRST INNER ITERATION):

    RESIDUAL       RESIDUAL       RESIDUAL       RESIDUAL       RESIDUAL    
   LAYER,ROW,COL  LAYER,ROW,COL  LAYER,ROW,COL  LAYER,ROW,COL  LAYER,ROW,COL
 ---------------------------------------------------------------------------
  1  -17.22      0  -9.943      0   6.205      0   3.088      0   1.894    
   (  9,  4,  5)  (  9,  2,  6)  ( 14,  1,  7)  ( 14,  1,  9)  ( 14, 10,  2)
  0   1.240      0 -0.9650      0 -0.7039      0  0.3939      0  0.3822    
   ( 14,  2, 11)  ( 10,  2,  2)  (  9,  2,  2)  ( 14,  1,  5)  ( 14,  2,  2)
  0  0.3024      0  0.1933      0 -0.1400      0 -0.1025      0  0.4326E-01
   ( 14,  2,  2)  ( 14,  4,  2)  (  9,  2,  2)  (  9,  2,  2)  (  9,  3,  3)
  0  0.2566E-01  0  0.2217E-01  0 -0.1105E-01  0  0.7004E-02  1  -97.35    
   ( 12,  2,  2)  ( 12,  2,  2)  ( 10,  3,  3)  (  7,  1,  1)  ( 14,  2,  2)
  0   23.53      0   14.75      0  -10.63      0  -9.144      0  -5.930    
   (  6,  2,  2)  ( 13,  2,  2)  (  8,  2,  2)  (  8,  2,  2)  (  8,  2,  2)
  0  -4.514      0  -3.507      0  -2.839      0  -2.120      0  -1.536    
   (  6,  1,  1)  (  6,  1,  1)  (  6,  1,  1)  (  6,  1,  1)  (  6,  1,  1)
  0  -1.161      0 -0.8021      0 -0.6298      0 -0.4339      0 -0.2910    
   (  6,  1,  1)  (  6,  1,  1)  (  6,  1,  1)  (  6,  1,  1)  (  6,  1,  1)
  0 -0.2037      0 -0.1369      0 -0.9863E-01  0 -0.6435E-01  1  -32.51    
   (  6,  1,  1)  (  6,  1,  1)  (  6,  1,  1)  (  6,  1,  1)  (  7,  3,  3)
  0   15.46      0   7.792      0   5.632      0   3.653      0   2.387    
   (  5,  1,  1)  (  5,  1,  1)  (  5,  1,  1)  (  5,  1,  1)  (  5,  1,  1)
  0   1.652      0  0.7939      0  0.5145      0  0.2967      0  0.2062    
   (  5,  1,  1)  (  5,  1,  1)  (  5,  1,  1)  (  5,  1,  1)  (  5,  1,  1)
  0  0.1591      0  0.1073      0  0.8302E-01  0  0.5124E-01  0  0.3372E-01
   (  5,  1,  1)  (  5,  1,  1)  (  5,  1,  1)  (  5,  1,  1)  (  5,  1,  1)
  1  -5.600      0  -3.123      0  -1.785      0 -0.9090      0 -0.5840    
   (  7,  2,  2)  (  7,  2,  2)  (  7,  2,  2)  (  7,  2,  2)  (  7,  2,  2)
  0  0.4133      0  0.2909      0  0.1760      0  0.1215      0  0.6635E-01
   (  8,  2,  2)  (  8,  2,  2)  (  8,  2,  2)  (  8,  2,  2)  (  8,  2,  2)
  0  0.4728E-01  1  0.2978      0  0.2186      0  0.1153      0  0.7218E-01
   (  8,  2,  2)  (  5,  1,  1)  (  5,  1,  1)  (  5,  1,  1)  (  5,  1,  1)
  0  0.4706E-01  0  0.3605E-01  1  0.3382E-01
   (  5,  1,  1)  (  5,  1,  1)  (  7,  2,  3)



 OUTPUT CONTROL FOR STRESS PERIOD    2   TIME STEP   2
    SAVE BUDGET
    PRINT HEAD FOR ALL LAYERS
    PRINT BUDGET
 UBDSV1 SAVING "         STORAGE" ON UNIT  32 AT TIME STEP  2, STRESS PERIOD   2
 UBDSV2 SAVING "   CONSTANT HEAD" ON UNIT  32 AT TIME STEP  2, STRESS PERIOD   2
 UBDSV1 SAVING "FLOW RIGHT FACE " ON UNIT  32 AT TIME STEP  2, STRESS PERIOD   2
 UBDSV1 SAVING "FLOW FRONT FACE " ON UNIT  32 AT TIME STEP  2, STRESS PERIOD   2
 UBDSV1 SAVING "FLOW LOWER FACE " ON UNIT  32 AT TIME STEP  2, STRESS PERIOD   2
 UBDSV3 SAVING "        RECHARGE" ON UNIT  32 AT TIME STEP  2, STRESS PERIOD   2
1
              HEAD IN LAYER   1 AT END OF TIME STEP   2 IN STRESS PERIOD    2
  ---------------------------------------------------------------------------

            1           2           3           4           5           6           7           8           9          10
           11          12          13          14          15          16          17          18          19          20
           21          22          23          24          25          26          27          28          29          30
           31          32          33          34          35          36          37          38          39          40
 ........................................................................................................................
   1   -99.90      -99.90      -99.90      -99.90      -99.90      -99.90      -99.90      -99.90      -99.90      -99.90    
       -99.90      -99.90      -99.90      -99.90      -99.90      -99.90      -99.90      -99.90      -99.90      -99.90    
       -99.90      -99.90      -99.90      -99.90      -99.90      -99.90      -99.90      -99.90      -99.90      -99.90    
       -99.90      -99.90      -99.90      -99.90      -99.90      -99.90      -99.90      -99.90      -99.90      -99.90    
   2   -99.90      -99.90      -99.90      -99.90      -99.90      -99.90      -99.90      -99.90      -99.90      -99.90    
       -99.90      -99.90      -99.90      -99.90      -99.90      -99.90      -99.90      -99.90      -99.90      -99.90    
       -99.90      -99.90      -99.90      -99.90      -99.90      -99.90      -99.90      -99.90      -99.90      -99.90    
       -99.90      -99.90      -99.90      -99.90      -99.90      -99.90      -99.90      -99.90      -99.90      -99.90    
   3   -99.90      -99.90      -99.90      -99.90      -99.90      -99.90      -99.90      -99.90      -99.90      -99.90    
       -99.90      -99.90      -99.90      -99.90      -99.90      -99.90      -99.90      -99.90      -99.90      -99.90    
       -99.90      -99.90      -99.90      -99.90      -99.90      -99.90      -99.90      -99.90      -99.90      -99.90    
       -99.90      -99.90      -99.90      -99.90      -99.90      -99.90      -99.90      -99.90      -99.90      -99.90    
   4   -99.90      -99.90      -99.90      -99.90      -99.90      -99.90      -99.90      -99.90      -99.90      -99.90    
       -99.90      -99.90      -99.90      -99.90      -99.90      -99.90      -99.90      -99.90      -99.90      -99.90    
       -99.90      -99.90      -99.90      -99.90      -99.90      -99.90      -99.90      -99.90      -99.90      -99.90    
       -99.90      -99.90      -99.90      -99.90      -99.90      -99.90      -99.90      -99.90      -99.90      -99.90    
   5   -99.90      -99.90      -99.90      -99.90      -99.90      -99.90      -99.90      -99.90      -99.90      -99.90    
       -99.90      -99.90      -99.90      -99.90      -99.90      -99.90      -99.90      -99.90      -99.90      -99.90    
       -99.90      -99.90      -99.90      -99.90      -99.90      -99.90      -99.90      -99.90      -99.90      -99.90    
       -99.90      -99.90      -99.90      -99.90      -99.90      -99.90      -99.90      -99.90      -99.90      -99.90    
   6   -99.90      -99.90      -99.90      -99.90      -99.90      -99.90      -99.90      -99.90      -99.90      -99.90    
       -99.90      -99.90      -99.90      -99.90      -99.90      -99.90      -99.90      -99.90      -99.90      -99.90    
       -99.90      -99.90      -99.90      -99.90      -99.90      -99.90      -99.90      -99.90      -99.90      -99.90    
       -99.90      -99.90      -99.90      -99.90      -99.90      -99.90      -99.90      -99.90      -99.90      -99.90    
   7   -99.90      -99.90      -99.90      -99.90      -99.90      -99.90      -99.90      -99.90      -99.90      -99.90    
       -99.90      -99.90      -99.90      -99.90      -99.90      -99.90      -99.90      -99.90      -99.90      -99.90    
       -99.90      -99.90      -99.90      -99.90      -99.90      -99.90      -99.90      -99.90      -99.90      -99.90    
       -99.90      -99.90      -99.90      -99.90      -99.90      -99.90      -99.90      -99.90      -99.90      -99.90    
   8   -99.90      -99.90      -99.90      -99.90      -99.90      -99.90      -99.90      -99.90      -99.90      -99.90    
       -99.90      -99.90      -99.90      -99.90      -99.90      -99.90      -99.90      -99.90      -99.90      -99.90    
       -99.90      -99.90      -99.90      -99.90      -99.90      -99.90      -99.90      -99.90      -99.90      -99.90    
       -99.90      -99.90      -99.90      -99.90      -99.90      -99.90      -99.90      -99.90      -99.90      -99.90    
   9   -99.90      -99.90      -99.90      -99.90      -99.90      -99.90      -99.90      -99.90      -99.90      -99.90    
       -99.90      -99.90      -99.90      -99.90      -99.90      -99.90      -99.90      -99.90      -99.90      -99.90    
       -99.90      -99.90      -99.90      -99.90      -99.90      -99.90      -99.90      -99.90      -99.90      -99.90    
       -99.90      -99.90      -99.90      -99.90      -99.90      -99.90      -99.90      -99.90      -99.90      -99.90    
  10   -99.90      -99.90      -99.90      -99.90      -99.90      -99.90      -99.90      -99.90      -99.90      -99.90    
       -99.90      -99.90      -99.90      -99.90      -99.90      -99.90      -99.90      -99.90      -99.90      -99.90    
       -99.90      -99.90      -99.90      -99.90      -99.90      -99.90      -99.90      -99.90      -99.90      -99.90    
       -99.90      -99.90      -99.90      -99.90      -99.90      -99.90      -99.90      -99.90      -99.90      -99.90    
  11   -99.90      -99.90      -99.90      -99.90      -99.90      -99.90      -99.90      -99.90      -99.90      -99.90    
       -99.90      -99.90      -99.90      -99.90      -99.90      -99.90      -99.90      -99.90      -99.90      -99.90    
       -99.90      -99.90      -99.90      -99.90      -99.90      -99.90      -99.90      -99.90      -99.90      -99.90    
       -99.90      -99.90      -99.90      -99.90      -99.90      -99.90      -99.90      -99.90      -99.90      -99.90    
  12   -99.90      -99.90      -99.90      -99.90      -99.90      -99.90      -99.90      -99.90      -99.90      -99.90    
       -99.90      -99.90      -99.90      -99.90      -99.90      -99.90      -99.90      -99.90      -99.90      -99.90    
       -99.90      -99.90      -99.90      -99.90      -99.90      -99.90      -99.90      -99.90      -99.90      -99.90    
       -99.90      -99.90      -99.90      -99.90      -99.90      -99.90      -99.90      -99.90      -99.90      -99.90    
  13   -99.90      -99.90      -99.90      -99.90      -99.90      -99.90      -99.90      -99.90      -99.90      -99.90    
       -99.90      -99.90      -99.90      -99.90      -99.90      -99.90      -99.90      -99.90      -99.90      -99.90    
       -99.90      -99.90      -99.90      -99.90      -99.90      -99.90      -99.90      -99.90      -99.90      -99.90    
       -99.90      -99.90      -99.90      -99.90      -99.90      -99.90      -99.90      -99.90      -99.90      -99.90    
  14   -99.90      -99.90      -99.90      -99.90      -99.90      -99.90      -99.90      -99.90      -99.90      -99.90    
       -99.90      -99.90      -99.90      -99.90      -99.90      -99.90      -99.90      -99.90      -99.90      -99.90    
       -99.90      -99.90      -99.90      -99.90      -99.90      -99.90      -99.90      -99.90      -99.90      -99.90    
       -99.90      -99.90      -99.90      -99.90      -99.90      -99.90      -99.90      -99.90      -99.90      -99.90    
  15   -99.90      -99.90      -99.90      -99.90      -99.90      -99.90      -99.90      -99.90      -99.90      -99.90    
       -99.90      -99.90      -99.90      -99.90      -99.90      -99.90      -99.90      -99.90      -99.90      -99.90    
       -99.90      -99.90      -99.90      -99.90      -99.90      -99.90      -99.90      -99.90      -99.90      -99.90    
       -99.90      -99.90      -99.90      -99.90      -99.90      -99.90      -99.90      -99.90      -99.90      -99.90    
  16   -99.90      -99.90      -99.90      -99.90      -99.90      -99.90      -99.90      -99.90      -99.90      -99.90    
       -99.90      -99.90      -99.90      -99.90      -99.90      -99.90      -99.90      -99.90      -99.90      -99.90    
       -99.90      -99.90      -99.90      -99.90      -99.90      -99.90      -99.90      -99.90      -99.90      -99.90    
       -99.90      -99.90      -99.90      -99.90      -99.90      -99.90      -99.90      -99.90      -99.90      -99.90    
  17   -99.90      -99.90      -99.90      -99.90      -99.90      -99.90      -99.90      -99.90      -99.90      -99.90    
       -99.90      -99.90      -99.90      -99.90      -99.90      -99.90      -99.90      -99.90      -99.90      -99.90    
       -99.90      -99.90      -99.90      -99.90      -99.90      -99.90      -99.90      -99.90      -99.90      -99.90    
       -99.90      -99.90      -99.90      -99.90      -99.90      -99.90      -99.90      -99.90      -99.90      -99.90    
  18   -99.90      -99.90      -99.90      -99.90      -99.90      -99.90      -99.90      -99.90      -99.90      -99.90    
       -99.90      -99.90      -99.90      -99.90      -99.90      -99.90      -99.90      -99.90      -99.90      -99.90    
       -99.90      -99.90      -99.90      -99.90      -99.90      -99.90      -99.90      -99.90      -99.90      -99.90    
       -99.90      -99.90      -99.90      -99.90      -99.90      -99.90      -99.90      -99.90      -99.90      -99.90    
  19   -99.90      -99.90      -99.90      -99.90      -99.90      -99.90      -99.90      -99.90      -99.90      -99.90    
       -99.90      -99.90      -99.90      -99.90      -99.90      -99.90      -99.90      -99.90      -99.90      -99.90    
       -99.90      -99.90      -99.90      -99.90      -99.90      -99.90      -99.90      -99.90      -99.90      -99.90    
       -99.90      -99.90      -99.90      -99.90      -99.90      -99.90      -99.90      -99.90      -99.90      -99.90    
  20   -99.90      -99.90      -99.90      -99.90      -99.90      -99.90      -99.90      -99.90      -99.90      -99.90    
       -99.90      -99.90      -99.90      -99.90      -99.90      -99.90      -99.90      -99.90      -99.90      -99.90    
       -99.90      -99.90      -99.90      -99.90      -99.90      -99.90      -99.90      -99.90      -99.90      -99.90    
       -99.90      -99.90      -99.90      -99.90      -99.90      -99.90      -99.90      -99.90      -99.90      -99.90    
  21   -99.90      -99.90      -99.90      -99.90      -99.90      -99.90      -99.90      -99.90      -99.90      -99.90    
       -99.90      -99.90      -99.90      -99.90      -99.90      -99.90      -99.90      -99.90      -99.90      -99.90    
       -99.90      -99.90      -99.90      -99.90      -99.90      -99.90      -99.90      -99.90      -99.90      -99.90    
       -99.90      -99.90      -99.90      -99.90      -99.90      -99.90      -99.90      -99.90      -99.90      -99.90    
  22   -99.90      -99.90      -99.90      -99.90      -99.90      -99.90      -99.90      -99.90      -99.90      -99.90    
       -99.90      -99.90      -99.90      -99.90      -99.90      -99.90      -99.90      -99.90      -99.90      -99.90    
       -99.90      -99.90      -99.90      -99.90      -99.90      -99.90      -99.90      -99.90      -99.90      -99.90    
       -99.90      -99.90      -99.90      -99.90      -99.90      -99.90      -99.90      -99.90      -99.90      -99.90    
  23   -99.90      -99.90      -99.90      -99.90      -99.90      -99.90      -99.90      -99.90      -99.90      -99.90    
       -99.90      -99.90      -99.90      -99.90      -99.90      -99.90      -99.90      -99.90      -99.90      -99.90    
       -99.90      -99.90      -99.90      -99.90      -99.90      -99.90      -99.90      -99.90      -99.90      -99.90    
       -99.90      -99.90      -99.90      -99.90      -99.90      -99.90      -99.90      -99.90      -99.90      -99.90    
  24   -99.90      -99.90      -99.90      -99.90      -99.90      -99.90      -99.90      -99.90      -99.90      -99.90    
       -99.90      -99.90      -99.90      -99.90      -99.90      -99.90      -99.90      -99.90      -99.90      -99.90    
       -99.90      -99.90      -99.90      -99.90      -99.90      -99.90      -99.90      -99.90      -99.90      -99.90    
       -99.90      -99.90      -99.90      -99.90      -99.90      -99.90      -99.90      -99.90      -99.90      -99.90    
  25   -99.90      -99.90      -99.90      -99.90      -99.90      -99.90      -99.90      -99.90      -99.90      -99.90    
       -99.90      -99.90      -99.90      -99.90      -99.90      -99.90      -99.90      -99.90      -99.90      -99.90    
       -99.90      -99.90      -99.90      -99.90      -99.90      -99.90      -99.90      -99.90      -99.90      -99.90    
       -99.90      -99.90      -99.90      -99.90      -99.90      -99.90      -99.90      -99.90      -99.90      -99.90    
  26   -99.90      -99.90      -99.90      -99.90      -99.90      -99.90      -99.90      -99.90      -99.90      -99.90    
       -99.90      -99.90      -99.90      -99.90      -99.90      -99.90      -99.90      -99.90      -99.90      -99.90    
       -99.90      -99.90      -99.90      -99.90      -99.90      -99.90      -99.90      -99.90      -99.90      -99.90    
       -99.90      -99.90      -99.90      -99.90      -99.90      -99.90      -99.90      -99.90      -99.90      -99.90    
  27   -99.90      -99.90      -99.90      -99.90      -99.90      -99.90      -99.90      -99.90      -99.90      -99.90    
       -99.90      -99.90      -99.90      -99.90      -99.90      -99.90      -99.90      -99.90      -99.90      -99.90    
       -99.90      -99.90      -99.90      -99.90      -99.90      -99.90      -99.90      -99.90      -99.90      -99.90    
       -99.90      -99.90      -99.90      -99.90      -99.90      -99.90      -99.90      -99.90      -99.90      -99.90    
  28   -99.90      -99.90      -99.90      -99.90      -99.90      -99.90      -99.90      -99.90      -99.90      -99.90    
       -99.90      -99.90      -99.90      -99.90      -99.90      -99.90      -99.90      -99.90      -99.90      -99.90    
       -99.90      -99.90      -99.90      -99.90      -99.90      -99.90      -99.90      -99.90      -99.90      -99.90    
       -99.90      -99.90      -99.90      -99.90      -99.90      -99.90      -99.90      -99.90      -99.90      -99.90    
  29   -99.90      -99.90      -99.90      -99.90      -99.90      -99.90      -99.90      -99.90      -99.90      -99.90    
       -99.90      -99.90      -99.90      -99.90      -99.90      -99.90      -99.90      -99.90      -99.90      -99.90    
       -99.90      -99.90      -99.90      -99.90      -99.90      -99.90      -99.90      -99.90      -99.90      -99.90    
       -99.90      -99.90      -99.90      -99.90      -99.90      -99.90      -99.90      -99.90      -99.90      -99.90    
  30   -99.90      -99.90      -99.90      -99.90      -99.90      -99.90      -99.90      -99.90      -99.90      -99.90    
       -99.90      -99.90      -99.90      -99.90      -99.90      -99.90      -99.90      -99.90      -99.90      -99.90    
       -99.90      -99.90      -99.90      -99.90      -99.90      -99.90      -99.90      -99.90      -99.90      -99.90    
       -99.90      -99.90      -99.90      -99.90      -99.90      -99.90      -99.90      -99.90      -99.90      -99.90    
  31   -99.90      -99.90      -99.90      -99.90      -99.90      -99.90      -99.90      -99.90      -99.90      -99.90    
       -99.90      -99.90      -99.90      -99.90      -99.90      -99.90      -99.90      -99.90      -99.90      -99.90    
       -99.90      -99.90      -99.90      -99.90      -99.90      -99.90      -99.90      -99.90      -99.90      -99.90    
       -99.90      -99.90      -99.90      -99.90      -99.90      -99.90      -99.90      -99.90      -99.90      -99.90    
  32   -99.90      -99.90      -99.90      -99.90      -99.90      -99.90      -99.90      -99.90      -99.90      -99.90    
       -99.90      -99.90      -99.90      -99.90      -99.90      -99.90      -99.90      -99.90      -99.90      -99.90    
       -99.90      -99.90      -99.90      -99.90      -99.90      -99.90      -99.90      -99.90      -99.90      -99.90    
       -99.90      -99.90      -99.90      -99.90      -99.90      -99.90      -99.90      -99.90      -99.90      -99.90    
  33   -99.90      -99.90      -99.90      -99.90      -99.90      -99.90      -99.90      -99.90      -99.90      -99.90    
       -99.90      -99.90      -99.90      -99.90      -99.90      -99.90      -99.90      -99.90      -99.90      -99.90    
       -99.90      -99.90      -99.90      -99.90      -99.90      -99.90      -99.90      -99.90      -99.90      -99.90    
       -99.90      -99.90      -99.90      -99.90      -99.90      -99.90      -99.90      -99.90      -99.90      -99.90    
  34   -99.90      -99.90      -99.90      -99.90      -99.90      -99.90      -99.90      -99.90      -99.90      -99.90    
       -99.90      -99.90      -99.90      -99.90      -99.90      -99.90      -99.90      -99.90      -99.90      -99.90    
       -99.90      -99.90      -99.90      -99.90      -99.90      -99.90      -99.90      -99.90      -99.90      -99.90    
       -99.90      -99.90      -99.90      -99.90      -99.90      -99.90      -99.90      -99.90      -99.90      -99.90    
  35   -99.90      -99.90      -99.90      -99.90      -99.90      -99.90      -99.90      -99.90      -99.90      -99.90    
       -99.90      -99.90      -99.90      -99.90      -99.90      -99.90      -99.90      -99.90      -99.90      -99.90    
       -99.90      -99.90      -99.90      -99.90      -99.90      -99.90      -99.90      -99.90      -99.90      -99.90    
       -99.90      -99.90      -99.90      -99.90      -99.90      -99.90      -99.90      -99.90      -99.90      -99.90    
  36   -99.90      -99.90      -99.90      -99.90      -99.90      -99.90      -99.90      -99.90      -99.90      -99.90    
       -99.90      -99.90      -99.90      -99.90      -99.90      -99.90      -99.90      -99.90      -99.90      -99.90    
       -99.90      -99.90      -99.90      -99.90      -99.90      -99.90      -99.90      -99.90      -99.90      -99.90    
       -99.90      -99.90      -99.90      -99.90      -99.90      -99.90      -99.90      -99.90      -99.90      -99.90    
  37   -99.90      -99.90      -99.90      -99.90      -99.90      -99.90      -99.90      -99.90      -99.90      -99.90    
       -99.90      -99.90      -99.90      -99.90      -99.90      -99.90      -99.90      -99.90      -99.90      -99.90    
       -99.90      -99.90      -99.90      -99.90      -99.90      -99.90      -99.90      -99.90      -99.90      -99.90    
       -99.90      -99.90      -99.90      -99.90      -99.90      -99.90      -99.90      -99.90      -99.90      -99.90    
  38   -99.90      -99.90      -99.90      -99.90      -99.90      -99.90      -99.90      -99.90      -99.90      -99.90    
       -99.90      -99.90      -99.90      -99.90      -99.90      -99.90      -99.90      -99.90      -99.90      -99.90    
       -99.90      -99.90      -99.90      -99.90      -99.90      -99.90      -99.90      -99.90      -99.90      -99.90    
       -99.90      -99.90      -99.90      -99.90      -99.90      -99.90      -99.90      -99.90      -99.90      -99.90    
  39   -99.90      -99.90      -99.90      -99.90      -99.90      -99.90      -99.90      -99.90      -99.90      -99.90    
       -99.90      -99.90      -99.90      -99.90      -99.90      -99.90      -99.90      -99.90      -99.90      -99.90    
       -99.90      -99.90      -99.90      -99.90      -99.90      -99.90      -99.90      -99.90      -99.90      -99.90    
       -99.90      -99.90      -99.90      -99.90      -99.90      -99.90      -99.90      -99.90      -99.90      -99.90    
  40   -99.90      -99.90      -99.90      -99.90      -99.90      -99.90      -99.90      -99.90      -99.90      -99.90    
       -99.90      -99.90      -99.90      -99.90      -99.90      -99.90      -99.90      -99.90      -99.90      -99.90    
       -99.90      -99.90      -99.90      -99.90      -99.90      -99.90      -99.90      -99.90      -99.90      -99.90    
       -99.90      -99.90      -99.90      -99.90      -99.90      -99.90      -99.90      -99.90      -99.90      -99.90    
1
              HEAD IN LAYER   2 AT END OF TIME STEP   2 IN STRESS PERIOD    2
  ---------------------------------------------------------------------------

            1           2           3           4           5           6           7           8           9          10
           11          12          13          14          15          16          17          18          19          20
           21          22          23          24          25          26          27          28          29          30
           31          32          33          34          35          36          37          38          39          40
 ........................................................................................................................
   1   -99.90      -99.90      -99.90      -99.90      -99.90      -99.90      -99.90      -99.90      -99.90      -99.90    
       -99.90      -99.90      -99.90      -99.90      -99.90      -99.90      -99.90      -99.90      -99.90      -99.90    
       -99.90      -99.90      -99.90      -99.90      -99.90      -99.90      -99.90      -99.90      -99.90      -99.90    
       -99.90      -99.90      -99.90      -99.90      -99.90      -99.90      -99.90      -99.90      -99.90      -99.90    
   2   -99.90      -99.90      -99.90      -99.90      -99.90      -99.90      -99.90      -99.90      -99.90      -99.90    
       -99.90      -99.90      -99.90      -99.90      -99.90      -99.90      -99.90      -99.90      -99.90      -99.90    
       -99.90      -99.90      -99.90      -99.90      -99.90      -99.90      -99.90      -99.90      -99.90      -99.90    
       -99.90      -99.90      -99.90      -99.90      -99.90      -99.90      -99.90      -99.90      -99.90      -99.90    
   3   -99.90      -99.90      -99.90      -99.90      -99.90      -99.90      -99.90      -99.90      -99.90      -99.90    
       -99.90      -99.90      -99.90      -99.90      -99.90      -99.90      -99.90      -99.90      -99.90      -99.90    
       -99.90      -99.90      -99.90      -99.90      -99.90      -99.90      -99.90      -99.90      -99.90      -99.90    
       -99.90      -99.90      -99.90      -99.90      -99.90      -99.90      -99.90      -99.90      -99.90      -99.90    
   4   -99.90      -99.90      -99.90      -99.90      -99.90      -99.90      -99.90      -99.90      -99.90      -99.90    
       -99.90      -99.90      -99.90      -99.90      -99.90      -99.90      -99.90      -99.90      -99.90      -99.90    
       -99.90      -99.90      -99.90      -99.90      -99.90      -99.90      -99.90      -99.90      -99.90      -99.90    
       -99.90      -99.90      -99.90      -99.90      -99.90      -99.90      -99.90      -99.90      -99.90      -99.90    
   5   -99.90      -99.90      -99.90      -99.90      -99.90      -99.90      -99.90      -99.90      -99.90      -99.90    
       -99.90      -99.90      -99.90      -99.90      -99.90      -99.90      -99.90      -99.90      -99.90      -99.90    
       -99.90      -99.90      -99.90      -99.90      -99.90      -99.90      -99.90      -99.90      -99.90      -99.90    
       -99.90      -99.90      -99.90      -99.90      -99.90      -99.90      -99.90      -99.90      -99.90      -99.90    
   6   -99.90      -99.90      -99.90      -99.90      -99.90      -99.90      -99.90      -99.90      -99.90      -99.90    
       -99.90      -99.90      -99.90      -99.90      -99.90      -99.90      -99.90      -99.90      -99.90      -99.90    
       -99.90      -99.90      -99.90      -99.90      -99.90      -99.90      -99.90      -99.90      -99.90      -99.90    
       -99.90      -99.90      -99.90      -99.90      -99.90      -99.90      -99.90      -99.90      -99.90      -99.90    
   7   -99.90      -99.90      -99.90      -99.90      -99.90      -99.90      -99.90      -99.90      -99.90      -99.90    
       -99.90      -99.90      -99.90      -99.90      -99.90      -99.90      -99.90      -99.90      -99.90      -99.90    
       -99.90      -99.90      -99.90      -99.90      -99.90      -99.90      -99.90      -99.90      -99.90      -99.90    
       -99.90      -99.90      -99.90      -99.90      -99.90      -99.90      -99.90      -99.90      -99.90      -99.90    
   8   -99.90      -99.90      -99.90      -99.90      -99.90      -99.90      -99.90      -99.90      -99.90      -99.90    
       -99.90      -99.90      -99.90      -99.90      -99.90      -99.90      -99.90      -99.90      -99.90      -99.90    
       -99.90      -99.90      -99.90      -99.90      -99.90      -99.90      -99.90      -99.90      -99.90      -99.90    
       -99.90      -99.90      -99.90      -99.90      -99.90      -99.90      -99.90      -99.90      -99.90      -99.90    
   9   -99.90      -99.90      -99.90      -99.90      -99.90      -99.90      -99.90      -99.90      -99.90      -99.90    
       -99.90      -99.90      -99.90      -99.90      -99.90      -99.90      -99.90      -99.90      -99.90      -99.90    
       -99.90      -99.90      -99.90      -99.90      -99.90      -99.90      -99.90      -99.90      -99.90      -99.90    
       -99.90      -99.90      -99.90      -99.90      -99.90      -99.90      -99.90      -99.90      -99.90      -99.90    
  10   -99.90      -99.90      -99.90      -99.90      -99.90      -99.90      -99.90      -99.90      -99.90      -99.90    
       -99.90      -99.90      -99.90      -99.90      -99.90      -99.90      -99.90      -99.90      -99.90      -99.90    
       -99.90      -99.90      -99.90      -99.90      -99.90      -99.90      -99.90      -99.90      -99.90      -99.90    
       -99.90      -99.90      -99.90      -99.90      -99.90      -99.90      -99.90      -99.90      -99.90      -99.90    
  11   -99.90      -99.90      -99.90      -99.90      -99.90      -99.90      -99.90      -99.90      -99.90      -99.90    
       -99.90      -99.90      -99.90      -99.90      -99.90      -99.90      -99.90      -99.90      -99.90      -99.90    
       -99.90      -99.90      -99.90      -99.90      -99.90      -99.90      -99.90      -99.90      -99.90      -99.90    
       -99.90      -99.90      -99.90      -99.90      -99.90      -99.90      -99.90      -99.90      -99.90      -99.90    
  12   -99.90      -99.90      -99.90      -99.90      -99.90      -99.90      -99.90      -99.90      -99.90      -99.90    
       -99.90      -99.90      -99.90      -99.90      -99.90      -99.90      -99.90      -99.90      -99.90      -99.90    
       -99.90      -99.90      -99.90      -99.90      -99.90      -99.90      -99.90      -99.90      -99.90      -99.90    
       -99.90      -99.90      -99.90      -99.90      -99.90      -99.90      -99.90      -99.90      -99.90      -99.90    
  13   -99.90      -99.90      -99.90      -99.90      -99.90      -99.90      -99.90      -99.90      -99.90      -99.90    
       -99.90      -99.90      -99.90      -99.90      -99.90      -99.90      -99.90      -99.90      -99.90      -99.90    
       -99.90      -99.90      -99.90      -99.90      -99.90      -99.90      -99.90      -99.90      -99.90      -99.90    
       -99.90      -99.90      -99.90      -99.90      -99.90      -99.90      -99.90      -99.90      -99.90      -99.90    
  14   -99.90      -99.90      -99.90      -99.90      -99.90      -99.90      -99.90      -99.90      -99.90      -99.90    
       -99.90      -99.90      -99.90      -99.90      -99.90      -99.90      -99.90      -99.90      -99.90      -99.90    
       -99.90      -99.90      -99.90      -99.90      -99.90      -99.90      -99.90      -99.90      -99.90      -99.90    
       -99.90      -99.90      -99.90      -99.90      -99.90      -99.90      -99.90      -99.90      -99.90      -99.90    
  15   -99.90      -99.90      -99.90      -99.90      -99.90      -99.90      -99.90      -99.90      -99.90      -99.90    
       -99.90      -99.90      -99.90      -99.90      -99.90      -99.90      -99.90      -99.90      -99.90      -99.90    
       -99.90      -99.90      -99.90      -99.90      -99.90      -99.90      -99.90      -99.90      -99.90      -99.90    
       -99.90      -99.90      -99.90      -99.90      -99.90      -99.90      -99.90      -99.90      -99.90      -99.90    
  16   -99.90      -99.90      -99.90      -99.90      -99.90      -99.90      -99.90      -99.90      -99.90      -99.90    
       -99.90      -99.90      -99.90      -99.90      -99.90      -99.90      -99.90      -99.90      -99.90      -99.90    
       -99.90      -99.90      -99.90      -99.90      -99.90      -99.90      -99.90      -99.90      -99.90      -99.90    
       -99.90      -99.90      -99.90      -99.90      -99.90      -99.90      -99.90      -99.90      -99.90      -99.90    
  17   -99.90      -99.90      -99.90      -99.90      -99.90      -99.90      -99.90      -99.90      -99.90      -99.90    
       -99.90      -99.90      -99.90      -99.90      -99.90      -99.90      -99.90      -99.90      -99.90      -99.90    
       -99.90      -99.90      -99.90      -99.90      -99.90      -99.90      -99.90      -99.90      -99.90      -99.90    
       -99.90      -99.90      -99.90      -99.90      -99.90      -99.90      -99.90      -99.90      -99.90      -99.90    
  18   -99.90      -99.90      -99.90      -99.90      -99.90      -99.90      -99.90      -99.90      -99.90      -99.90    
       -99.90      -99.90      -99.90      -99.90      -99.90      -99.90      -99.90      -99.90      -99.90      -99.90    
       -99.90      -99.90      -99.90      -99.90      -99.90      -99.90      -99.90      -99.90      -99.90      -99.90    
       -99.90      -99.90      -99.90      -99.90      -99.90      -99.90      -99.90      -99.90      -99.90      -99.90    
  19   -99.90      -99.90      -99.90      -99.90      -99.90      -99.90      -99.90      -99.90      -99.90      -99.90    
       -99.90      -99.90      -99.90      -99.90      -99.90      -99.90      -99.90      -99.90      -99.90      -99.90    
       -99.90      -99.90      -99.90      -99.90      -99.90      -99.90      -99.90      -99.90      -99.90      -99.90    
       -99.90      -99.90      -99.90      -99.90      -99.90      -99.90      -99.90      -99.90      -99.90      -99.90    
  20   -99.90      -99.90      -99.90      -99.90      -99.90      -99.90      -99.90      -99.90      -99.90      -99.90    
       -99.90      -99.90      -99.90      -99.90      -99.90      -99.90      -99.90      -99.90      -99.90      -99.90    
       -99.90      -99.90      -99.90      -99.90      -99.90      -99.90      -99.90      -99.90      -99.90      -99.90    
       -99.90      -99.90      -99.90      -99.90      -99.90      -99.90      -99.90      -99.90      -99.90      -99.90    
  21   -99.90      -99.90      -99.90      -99.90      -99.90      -99.90      -99.90      -99.90      -99.90      -99.90    
       -99.90      -99.90      -99.90      -99.90      -99.90      -99.90      -99.90      -99.90      -99.90      -99.90    
       -99.90      -99.90      -99.90      -99.90      -99.90      -99.90      -99.90      -99.90      -99.90      -99.90    
       -99.90      -99.90      -99.90      -99.90      -99.90      -99.90      -99.90      -99.90      -99.90      -99.90    
  22   -99.90      -99.90      -99.90      -99.90      -99.90      -99.90      -99.90      -99.90      -99.90      -99.90    
       -99.90      -99.90      -99.90      -99.90      -99.90      -99.90      -99.90      -99.90      -99.90      -99.90    
       -99.90      -99.90      -99.90      -99.90      -99.90      -99.90      -99.90      -99.90      -99.90      -99.90    
       -99.90      -99.90      -99.90      -99.90      -99.90      -99.90      -99.90      -99.90      -99.90      -99.90    
  23   -99.90      -99.90      -99.90      -99.90      -99.90      -99.90      -99.90      -99.90      -99.90      -99.90    
       -99.90      -99.90      -99.90      -99.90      -99.90      -99.90      -99.90      -99.90      -99.90      -99.90    
       -99.90      -99.90      -99.90      -99.90      -99.90      -99.90      -99.90      -99.90      -99.90      -99.90    
       -99.90      -99.90      -99.90      -99.90      -99.90      -99.90      -99.90      -99.90      -99.90      -99.90    
  24   -99.90      -99.90      -99.90      -99.90      -99.90      -99.90      -99.90      -99.90      -99.90      -99.90    
       -99.90      -99.90      -99.90      -99.90      -99.90      -99.90      -99.90      -99.90      -99.90      -99.90    
       -99.90      -99.90      -99.90      -99.90      -99.90      -99.90      -99.90      -99.90      -99.90      -99.90    
       -99.90      -99.90      -99.90      -99.90      -99.90      -99.90      -99.90      -99.90      -99.90      -99.90    
  25   -99.90      -99.90      -99.90      -99.90      -99.90      -99.90      -99.90      -99.90      -99.90      -99.90    
       -99.90      -99.90      -99.90      -99.90      -99.90      -99.90      -99.90      -99.90      -99.90      -99.90    
       -99.90      -99.90      -99.90      -99.90      -99.90      -99.90      -99.90      -99.90      -99.90      -99.90    
       -99.90      -99.90      -99.90      -99.90      -99.90      -99.90      -99.90      -99.90      -99.90      -99.90    
  26   -99.90      -99.90      -99.90      -99.90      -99.90      -99.90      -99.90      -99.90      -99.90      -99.90    
       -99.90      -99.90      -99.90      -99.90      -99.90      -99.90      -99.90      -99.90      -99.90      -99.90    
       -99.90      -99.90      -99.90      -99.90      -99.90      -99.90      -99.90      -99.90      -99.90      -99.90    
       -99.90      -99.90      -99.90      -99.90      -99.90      -99.90      -99.90      -99.90      -99.90      -99.90    
  27   -99.90      -99.90      -99.90      -99.90      -99.90      -99.90      -99.90      -99.90      -99.90      -99.90    
       -99.90      -99.90      -99.90      -99.90      -99.90      -99.90      -99.90      -99.90      -99.90      -99.90    
       -99.90      -99.90      -99.90      -99.90      -99.90      -99.90      -99.90      -99.90      -99.90      -99.90    
       -99.90      -99.90      -99.90      -99.90      -99.90      -99.90      -99.90      -99.90      -99.90      -99.90    
  28   -99.90      -99.90      -99.90      -99.90      -99.90      -99.90      -99.90      -99.90      -99.90      -99.90    
       -99.90      -99.90      -99.90      -99.90      -99.90      -99.90      -99.90      -99.90      -99.90      -99.90    
       -99.90      -99.90      -99.90      -99.90      -99.90      -99.90      -99.90      -99.90      -99.90      -99.90    
       -99.90      -99.90      -99.90      -99.90      -99.90      -99.90      -99.90      -99.90      -99.90      -99.90    
  29   -99.90      -99.90      -99.90      -99.90      -99.90      -99.90      -99.90      -99.90      -99.90      -99.90    
       -99.90      -99.90      -99.90      -99.90      -99.90      -99.90      -99.90      -99.90      -99.90      -99.90    
       -99.90      -99.90      -99.90      -99.90      -99.90      -99.90      -99.90      -99.90      -99.90      -99.90    
       -99.90      -99.90      -99.90      -99.90      -99.90      -99.90      -99.90      -99.90      -99.90      -99.90    
  30   -99.90      -99.90      -99.90      -99.90      -99.90      -99.90      -99.90      -99.90      -99.90      -99.90    
       -99.90      -99.90      -99.90      -99.90      -99.90      -99.90      -99.90      -99.90      -99.90      -99.90    
       -99.90      -99.90      -99.90      -99.90      -99.90      -99.90      -99.90      -99.90      -99.90      -99.90    
       -99.90      -99.90      -99.90      -99.90      -99.90      -99.90      -99.90      -99.90      -99.90      -99.90    
  31   -99.90      -99.90      -99.90      -99.90      -99.90      -99.90      -99.90      -99.90      -99.90      -99.90    
       -99.90      -99.90      -99.90      -99.90      -99.90      -99.90      -99.90      -99.90      -99.90      -99.90    
       -99.90      -99.90      -99.90      -99.90      -99.90      -99.90      -99.90      -99.90      -99.90      -99.90    
       -99.90      -99.90      -99.90      -99.90      -99.90      -99.90      -99.90      -99.90      -99.90      -99.90    
  32   -99.90      -99.90      -99.90      -99.90      -99.90      -99.90      -99.90      -99.90      -99.90      -99.90    
       -99.90      -99.90      -99.90      -99.90      -99.90      -99.90      -99.90      -99.90      -99.90      -99.90    
       -99.90      -99.90      -99.90      -99.90      -99.90      -99.90      -99.90      -99.90      -99.90      -99.90    
       -99.90      -99.90      -99.90      -99.90      -99.90      -99.90      -99.90      -99.90      -99.90      -99.90    
  33   -99.90      -99.90      -99.90      -99.90      -99.90      -99.90      -99.90      -99.90      -99.90      -99.90    
       -99.90      -99.90      -99.90      -99.90      -99.90      -99.90      -99.90      -99.90      -99.90      -99.90    
       -99.90      -99.90      -99.90      -99.90      -99.90      -99.90      -99.90      -99.90      -99.90      -99.90    
       -99.90      -99.90      -99.90      -99.90      -99.90      -99.90      -99.90      -99.90      -99.90      -99.90    
  34   -99.90      -99.90      -99.90      -99.90      -99.90      -99.90      -99.90      -99.90      -99.90      -99.90    
       -99.90      -99.90      -99.90      -99.90      -99.90      -99.90      -99.90      -99.90      -99.90      -99.90    
       -99.90      -99.90      -99.90      -99.90      -99.90      -99.90      -99.90      -99.90      -99.90      -99.90    
       -99.90      -99.90      -99.90      -99.90      -99.90      -99.90      -99.90      -99.90      -99.90      -99.90    
  35   -99.90      -99.90      -99.90      -99.90      -99.90      -99.90      -99.90      -99.90      -99.90      -99.90    
       -99.90      -99.90      -99.90      -99.90      -99.90      -99.90      -99.90      -99.90      -99.90      -99.90    
       -99.90      -99.90      -99.90      -99.90      -99.90      -99.90      -99.90      -99.90      -99.90      -99.90    
       -99.90      -99.90      -99.90      -99.90      -99.90      -99.90      -99.90      -99.90      -99.90      -99.90    
  36   -99.90      -99.90      -99.90      -99.90      -99.90      -99.90      -99.90      -99.90      -99.90      -99.90    
       -99.90      -99.90      -99.90      -99.90      -99.90      -99.90      -99.90      -99.90      -99.90      -99.90    
       -99.90      -99.90      -99.90      -99.90      -99.90      -99.90      -99.90      -99.90      -99.90      -99.90    
       -99.90      -99.90      -99.90      -99.90      -99.90      -99.90      -99.90      -99.90      -99.90      -99.90    
  37   -99.90      -99.90      -99.90      -99.90      -99.90      -99.90      -99.90      -99.90      -99.90      -99.90    
       -99.90      -99.90      -99.90      -99.90      -99.90      -99.90      -99.90      -99.90      -99.90      -99.90    
       -99.90      -99.90      -99.90      -99.90      -99.90      -99.90      -99.90      -99.90      -99.90      -99.90    
       -99.90      -99.90      -99.90      -99.90      -99.90      -99.90      -99.90      -99.90      -99.90      -99.90    
  38   -99.90      -99.90      -99.90      -99.90      -99.90      -99.90      -99.90      -99.90      -99.90      -99.90    
       -99.90      -99.90      -99.90      -99.90      -99.90      -99.90      -99.90      -99.90      -99.90      -99.90    
       -99.90      -99.90      -99.90      -99.90      -99.90      -99.90      -99.90      -99.90      -99.90      -99.90    
       -99.90      -99.90      -99.90      -99.90      -99.90      -99.90      -99.90      -99.90      -99.90      -99.90    
  39   -99.90      -99.90      -99.90      -99.90      -99.90      -99.90      -99.90      -99.90      -99.90      -99.90    
       -99.90      -99.90      -99.90      -99.90      -99.90      -99.90      -99.90      -99.90      -99.90      -99.90    
       -99.90      -99.90      -99.90      -99.90      -99.90      -99.90      -99.90      -99.90      -99.90      -99.90    
       -99.90      -99.90      -99.90      -99.90      -99.90      -99.90      -99.90      -99.90      -99.90      -99.90    
  40   -99.90      -99.90      -99.90      -99.90      -99.90      -99.90      -99.90      -99.90      -99.90      -99.90    
       -99.90      -99.90      -99.90      -99.90      -99.90      -99.90      -99.90      -99.90      -99.90      -99.90    
       -99.90      -99.90      -99.90      -99.90      -99.90      -99.90      -99.90      -99.90      -99.90      -99.90    
       -99.90      -99.90      -99.90      -99.90      -99.90      -99.90      -99.90      -99.90      -99.90      -99.90    
1
              HEAD IN LAYER   3 AT END OF TIME STEP   2 IN STRESS PERIOD    2
  ---------------------------------------------------------------------------

            1           2           3           4           5           6           7           8           9          10
           11          12          13          14          15          16          17          18          19          20
           21          22          23          24          25          26          27          28          29          30
           31          32          33          34          35          36          37          38          39          40
 ........................................................................................................................
   1   -99.90      -99.90      -99.90      -99.90      -99.90      -99.90      -99.90      -99.90      -99.90      -99.90    
       -99.90      -99.90      -99.90      -99.90      -99.90      -99.90      -99.90      -99.90      -99.90      -99.90    
       -99.90      -99.90      -99.90      -99.90      -99.90      -99.90      -99.90      -99.90      -99.90      -99.90    
       -99.90      -99.90      -99.90      -99.90      -99.90      -99.90      -99.90      -99.90      -99.90      -99.90    
   2   -99.90      -99.90      -99.90      -99.90      -99.90      -99.90      -99.90      -99.90      -99.90      -99.90    
       -99.90      -99.90      -99.90      -99.90      -99.90      -99.90      -99.90      -99.90      -99.90      -99.90    
       -99.90      -99.90      -99.90      -99.90      -99.90      -99.90      -99.90      -99.90      -99.90      -99.90    
       -99.90      -99.90      -99.90      -99.90      -99.90      -99.90      -99.90      -99.90      -99.90      -99.90    
   3   -99.90      -99.90      -99.90      -99.90      -99.90      -99.90      -99.90      -99.90      -99.90      -99.90    
       -99.90      -99.90      -99.90      -99.90      -99.90      -99.90      -99.90      -99.90      -99.90      -99.90    
       -99.90      -99.90      -99.90      -99.90      -99.90      -99.90      -99.90      -99.90      -99.90      -99.90    
       -99.90      -99.90      -99.90      -99.90      -99.90      -99.90      -99.90      -99.90      -99.90      -99.90    
   4   -99.90      -99.90      -99.90      -99.90      -99.90      -99.90      -99.90      -99.90      -99.90      -99.90    
       -99.90      -99.90      -99.90      -99.90      -99.90      -99.90      -99.90      -99.90      -99.90      -99.90    
       -99.90      -99.90      -99.90      -99.90      -99.90      -99.90      -99.90      -99.90      -99.90      -99.90    
       -99.90      -99.90      -99.90      -99.90      -99.90      -99.90      -99.90      -99.90      -99.90      -99.90    
   5   -99.90      -99.90      -99.90      -99.90      -99.90      -99.90      -99.90      -99.90      -99.90      -99.90    
       -99.90      -99.90      -99.90      -99.90      -99.90      -99.90      -99.90      -99.90      -99.90      -99.90    
       -99.90      -99.90      -99.90      -99.90      -99.90      -99.90      -99.90      -99.90      -99.90      -99.90    
       -99.90      -99.90      -99.90      -99.90      -99.90      -99.90      -99.90      -99.90      -99.90      -99.90    
   6   -99.90      -99.90      -99.90      -99.90      -99.90      -99.90      -99.90      -99.90      -99.90      -99.90    
       -99.90      -99.90      -99.90      -99.90      -99.90      -99.90      -99.90      -99.90      -99.90      -99.90    
       -99.90      -99.90      -99.90      -99.90      -99.90      -99.90      -99.90      -99.90      -99.90      -99.90    
       -99.90      -99.90      -99.90      -99.90      -99.90      -99.90      -99.90      -99.90      -99.90      -99.90    
   7   -99.90      -99.90      -99.90      -99.90      -99.90      -99.90      -99.90      -99.90      -99.90      -99.90    
       -99.90      -99.90      -99.90      -99.90      -99.90      -99.90      -99.90      -99.90      -99.90      -99.90    
       -99.90      -99.90      -99.90      -99.90      -99.90      -99.90      -99.90      -99.90      -99.90      -99.90    
       -99.90      -99.90      -99.90      -99.90      -99.90      -99.90      -99.90      -99.90      -99.90      -99.90    
   8   -99.90      -99.90      -99.90      -99.90      -99.90      -99.90      -99.90      -99.90      -99.90      -99.90    
       -99.90      -99.90      -99.90      -99.90      -99.90      -99.90      -99.90      -99.90      -99.90      -99.90    
       -99.90      -99.90      -99.90      -99.90      -99.90      -99.90      -99.90      -99.90      -99.90      -99.90    
       -99.90      -99.90      -99.90      -99.90      -99.90      -99.90      -99.90      -99.90      -99.90      -99.90    
   9   -99.90      -99.90      -99.90      -99.90      -99.90      -99.90      -99.90      -99.90      -99.90      -99.90    
       -99.90      -99.90      -99.90      -99.90      -99.90      -99.90      -99.90      -99.90      -99.90      -99.90    
       -99.90      -99.90      -99.90      -99.90      -99.90      -99.90      -99.90      -99.90      -99.90      -99.90    
       -99.90      -99.90      -99.90      -99.90      -99.90      -99.90      -99.90      -99.90      -99.90      -99.90    
  10   -99.90      -99.90      -99.90      -99.90      -99.90      -99.90      -99.90      -99.90      -99.90      -99.90    
       -99.90      -99.90      -99.90      -99.90      -99.90      -99.90      -99.90      -99.90      -99.90      -99.90    
       -99.90      -99.90      -99.90      -99.90      -99.90      -99.90      -99.90      -99.90      -99.90      -99.90    
       -99.90      -99.90      -99.90      -99.90      -99.90      -99.90      -99.90      -99.90      -99.90      -99.90    
  11   -99.90      -99.90      -99.90      -99.90      -99.90      -99.90      -99.90      -99.90      -99.90      -99.90    
       -99.90      -99.90      -99.90      -99.90      -99.90      -99.90      -99.90      -99.90      -99.90      -99.90    
       -99.90      -99.90      -99.90      -99.90      -99.90      -99.90      -99.90      -99.90      -99.90      -99.90    
       -99.90      -99.90      -99.90      -99.90      -99.90      -99.90      -99.90      -99.90      -99.90      -99.90    
  12   -99.90      -99.90      -99.90      -99.90      -99.90      -99.90      -99.90      -99.90      -99.90      -99.90    
       -99.90      -99.90      -99.90      -99.90      -99.90      -99.90      -99.90      -99.90      -99.90      -99.90    
       -99.90      -99.90      -99.90      -99.90      -99.90      -99.90      -99.90      -99.90      -99.90      -99.90    
       -99.90      -99.90      -99.90      -99.90      -99.90      -99.90      -99.90      -99.90      -99.90      -99.90    
  13   -99.90      -99.90      -99.90      -99.90      -99.90      -99.90      -99.90      -99.90      -99.90      -99.90    
       -99.90      -99.90      -99.90      -99.90      -99.90      -99.90      -99.90      -99.90      -99.90      -99.90    
       -99.90      -99.90      -99.90      -99.90      -99.90      -99.90      -99.90      -99.90      -99.90      -99.90    
       -99.90      -99.90      -99.90      -99.90      -99.90      -99.90      -99.90      -99.90      -99.90      -99.90    
  14   -99.90      -99.90      -99.90      -99.90      -99.90      -99.90      -99.90      -99.90      -99.90      -99.90    
       -99.90      -99.90      -99.90      -99.90      -99.90      -99.90      -99.90      -99.90      -99.90      -99.90    
       -99.90      -99.90      -99.90      -99.90      -99.90      -99.90      -99.90      -99.90      -99.90      -99.90    
       -99.90      -99.90      -99.90      -99.90      -99.90      -99.90      -99.90      -99.90      -99.90      -99.90    
  15   -99.90      -99.90      -99.90      -99.90      -99.90      -99.90      -99.90      -99.90      -99.90      -99.90    
       -99.90      -99.90      -99.90      -99.90      -99.90      -99.90      -99.90      -99.90      -99.90      -99.90    
       -99.90      -99.90      -99.90      -99.90      -99.90      -99.90      -99.90      -99.90      -99.90      -99.90    
       -99.90      -99.90      -99.90      -99.90      -99.90      -99.90      -99.90      -99.90      -99.90      -99.90    
  16   -99.90      -99.90      -99.90      -99.90      -99.90      -99.90      -99.90      -99.90      -99.90      -99.90    
       -99.90      -99.90      -99.90      -99.90      -99.90      -99.90      -99.90      -99.90      -99.90      -99.90    
       -99.90      -99.90      -99.90      -99.90      -99.90      -99.90      -99.90      -99.90      -99.90      -99.90    
       -99.90      -99.90      -99.90      -99.90      -99.90      -99.90      -99.90      -99.90      -99.90      -99.90    
  17   -99.90      -99.90      -99.90      -99.90      -99.90      -99.90      -99.90      -99.90      -99.90      -99.90    
       -99.90      -99.90      -99.90      -99.90      -99.90      -99.90      -99.90      -99.90      -99.90      -99.90    
       -99.90      -99.90      -99.90      -99.90      -99.90      -99.90      -99.90      -99.90      -99.90      -99.90    
       -99.90      -99.90      -99.90      -99.90      -99.90      -99.90      -99.90      -99.90      -99.90      -99.90    
  18   -99.90      -99.90      -99.90      -99.90      -99.90      -99.90      -99.90      -99.90      -99.90      -99.90    
       -99.90      -99.90      -99.90      -99.90      -99.90      -99.90      -99.90      -99.90      -99.90      -99.90    
       -99.90      -99.90      -99.90      -99.90      -99.90      -99.90      -99.90      -99.90      -99.90      -99.90    
       -99.90      -99.90      -99.90      -99.90      -99.90      -99.90      -99.90      -99.90      -99.90      -99.90    
  19   -99.90      -99.90      -99.90      -99.90      -99.90      -99.90      -99.90      -99.90      -99.90      -99.90    
       -99.90      -99.90      -99.90      -99.90      -99.90      -99.90      -99.90      -99.90      -99.90      -99.90    
       -99.90      -99.90      -99.90      -99.90      -99.90      -99.90      -99.90      -99.90      -99.90      -99.90    
       -99.90      -99.90      -99.90      -99.90      -99.90      -99.90      -99.90      -99.90      -99.90      -99.90    
  20   -99.90      -99.90      -99.90      -99.90      -99.90      -99.90      -99.90      -99.90      -99.90      -99.90    
       -99.90      -99.90      -99.90      -99.90      -99.90      -99.90      -99.90      -99.90      -99.90      -99.90    
       -99.90      -99.90      -99.90      -99.90      -99.90      -99.90      -99.90      -99.90      -99.90      -99.90    
       -99.90      -99.90      -99.90      -99.90      -99.90      -99.90      -99.90      -99.90      -99.90      -99.90    
  21   -99.90      -99.90      -99.90      -99.90      -99.90      -99.90      -99.90      -99.90      -99.90      -99.90    
       -99.90      -99.90      -99.90      -99.90      -99.90      -99.90      -99.90      -99.90      -99.90      -99.90    
       -99.90      -99.90      -99.90      -99.90      -99.90      -99.90      -99.90      -99.90      -99.90      -99.90    
       -99.90      -99.90      -99.90      -99.90      -99.90      -99.90      -99.90      -99.90      -99.90      -99.90    
  22   -99.90      -99.90      -99.90      -99.90      -99.90      -99.90      -99.90      -99.90      -99.90      -99.90    
       -99.90      -99.90      -99.90      -99.90      -99.90      -99.90      -99.90      -99.90      -99.90      -99.90    
       -99.90      -99.90      -99.90      -99.90      -99.90      -99.90      -99.90      -99.90      -99.90      -99.90    
       -99.90      -99.90      -99.90      -99.90      -99.90      -99.90      -99.90      -99.90      -99.90      -99.90    
  23   -99.90      -99.90      -99.90      -99.90      -99.90      -99.90      -99.90      -99.90      -99.90      -99.90    
       -99.90      -99.90      -99.90      -99.90      -99.90      -99.90      -99.90      -99.90      -99.90      -99.90    
       -99.90      -99.90      -99.90      -99.90      -99.90      -99.90      -99.90      -99.90      -99.90      -99.90    
       -99.90      -99.90      -99.90      -99.90      -99.90      -99.90      -99.90      -99.90      -99.90      -99.90    
  24   -99.90      -99.90      -99.90      -99.90      -99.90      -99.90      -99.90      -99.90      -99.90      -99.90    
       -99.90      -99.90      -99.90      -99.90      -99.90      -99.90      -99.90      -99.90      -99.90      -99.90    
       -99.90      -99.90      -99.90      -99.90      -99.90      -99.90      -99.90      -99.90      -99.90      -99.90    
       -99.90      -99.90      -99.90      -99.90      -99.90      -99.90      -99.90      -99.90      -99.90      -99.90    
  25   -99.90      -99.90      -99.90      -99.90      -99.90      -99.90      -99.90      -99.90      -99.90      -99.90    
       -99.90      -99.90      -99.90      -99.90      -99.90      -99.90      -99.90      -99.90      -99.90      -99.90    
       -99.90      -99.90      -99.90      -99.90      -99.90      -99.90      -99.90      -99.90      -99.90      -99.90    
       -99.90      -99.90      -99.90      -99.90      -99.90      -99.90      -99.90      -99.90      -99.90      -99.90    
  26   -99.90      -99.90      -99.90      -99.90      -99.90      -99.90      -99.90      -99.90      -99.90      -99.90    
       -99.90      -99.90      -99.90      -99.90      -99.90      -99.90      -99.90      -99.90      -99.90      -99.90    
       -99.90      -99.90      -99.90      -99.90      -99.90      -99.90      -99.90      -99.90      -99.90      -99.90    
       -99.90      -99.90      -99.90      -99.90      -99.90      -99.90      -99.90      -99.90      -99.90      -99.90    
  27   -99.90      -99.90      -99.90      -99.90      -99.90      -99.90      -99.90      -99.90      -99.90      -99.90    
       -99.90      -99.90      -99.90      -99.90      -99.90      -99.90      -99.90      -99.90      -99.90      -99.90    
       -99.90      -99.90      -99.90      -99.90      -99.90      -99.90      -99.90      -99.90      -99.90      -99.90    
       -99.90      -99.90      -99.90      -99.90      -99.90      -99.90      -99.90      -99.90      -99.90      -99.90    
  28   -99.90      -99.90      -99.90      -99.90      -99.90      -99.90      -99.90      -99.90      -99.90      -99.90    
       -99.90      -99.90      -99.90      -99.90      -99.90      -99.90      -99.90      -99.90      -99.90      -99.90    
       -99.90      -99.90      -99.90      -99.90      -99.90      -99.90      -99.90      -99.90      -99.90      -99.90    
       -99.90      -99.90      -99.90      -99.90      -99.90      -99.90      -99.90      -99.90      -99.90      -99.90    
  29   -99.90      -99.90      -99.90      -99.90      -99.90      -99.90      -99.90      -99.90      -99.90      -99.90    
       -99.90      -99.90      -99.90      -99.90      -99.90      -99.90      -99.90      -99.90      -99.90      -99.90    
       -99.90      -99.90      -99.90      -99.90      -99.90      -99.90      -99.90      -99.90      -99.90      -99.90    
       -99.90      -99.90      -99.90      -99.90      -99.90      -99.90      -99.90      -99.90      -99.90      -99.90    
  30   -99.90      -99.90      -99.90      -99.90      -99.90      -99.90      -99.90      -99.90      -99.90      -99.90    
       -99.90      -99.90      -99.90      -99.90      -99.90      -99.90      -99.90      -99.90      -99.90      -99.90    
       -99.90      -99.90      -99.90      -99.90      -99.90      -99.90      -99.90      -99.90      -99.90      -99.90    
       -99.90      -99.90      -99.90      -99.90      -99.90      -99.90      -99.90      -99.90      -99.90      -99.90    
  31   -99.90      -99.90      -99.90      -99.90      -99.90      -99.90      -99.90      -99.90      -99.90      -99.90    
       -99.90      -99.90      -99.90      -99.90      -99.90      -99.90      -99.90      -99.90      -99.90      -99.90    
       -99.90      -99.90      -99.90      -99.90      -99.90      -99.90      -99.90      -99.90      -99.90      -99.90    
       -99.90      -99.90      -99.90      -99.90      -99.90      -99.90      -99.90      -99.90      -99.90      -99.90    
  32   -99.90      -99.90      -99.90      -99.90      -99.90      -99.90      -99.90      -99.90      -99.90      -99.90    
       -99.90      -99.90      -99.90      -99.90      -99.90      -99.90      -99.90      -99.90      -99.90      -99.90    
       -99.90      -99.90      -99.90      -99.90      -99.90      -99.90      -99.90      -99.90      -99.90      -99.90    
       -99.90      -99.90      -99.90      -99.90      -99.90      -99.90      -99.90      -99.90      -99.90      -99.90    
  33   -99.90      -99.90      -99.90      -99.90      -99.90      -99.90      -99.90      -99.90      -99.90      -99.90    
       -99.90      -99.90      -99.90      -99.90      -99.90      -99.90      -99.90      -99.90      -99.90      -99.90    
       -99.90      -99.90      -99.90      -99.90      -99.90      -99.90      -99.90      -99.90      -99.90      -99.90    
       -99.90      -99.90      -99.90      -99.90      -99.90      -99.90      -99.90      -99.90      -99.90      -99.90    
  34   -99.90      -99.90      -99.90      -99.90      -99.90      -99.90      -99.90      -99.90      -99.90      -99.90    
       -99.90      -99.90      -99.90      -99.90      -99.90      -99.90      -99.90      -99.90      -99.90      -99.90    
       -99.90      -99.90      -99.90      -99.90      -99.90      -99.90      -99.90      -99.90      -99.90      -99.90    
       -99.90      -99.90      -99.90      -99.90      -99.90      -99.90      -99.90      -99.90      -99.90      -99.90    
  35   -99.90      -99.90      -99.90      -99.90      -99.90      -99.90      -99.90      -99.90      -99.90      -99.90    
       -99.90      -99.90      -99.90      -99.90      -99.90      -99.90      -99.90      -99.90      -99.90      -99.90    
       -99.90      -99.90      -99.90      -99.90      -99.90      -99.90      -99.90      -99.90      -99.90      -99.90    
       -99.90      -99.90      -99.90      -99.90      -99.90      -99.90      -99.90      -99.90      -99.90      -99.90    
  36   -99.90      -99.90      -99.90      -99.90      -99.90      -99.90      -99.90      -99.90      -99.90      -99.90    
       -99.90      -99.90      -99.90      -99.90      -99.90      -99.90      -99.90      -99.90      -99.90      -99.90    
       -99.90      -99.90      -99.90      -99.90      -99.90      -99.90      -99.90      -99.90      -99.90      -99.90    
       -99.90      -99.90      -99.90      -99.90      -99.90      -99.90      -99.90      -99.90      -99.90      -99.90    
  37   -99.90      -99.90      -99.90      -99.90      -99.90      -99.90      -99.90      -99.90      -99.90      -99.90    
       -99.90      -99.90      -99.90      -99.90      -99.90      -99.90      -99.90      -99.90      -99.90      -99.90    
       -99.90      -99.90      -99.90      -99.90      -99.90      -99.90      -99.90      -99.90      -99.90      -99.90    
       -99.90      -99.90      -99.90      -99.90      -99.90      -99.90      -99.90      -99.90      -99.90      -99.90    
  38   -99.90      -99.90      -99.90      -99.90      -99.90      -99.90      -99.90      -99.90      -99.90      -99.90    
       -99.90      -99.90      -99.90      -99.90      -99.90      -99.90      -99.90      -99.90      -99.90      -99.90    
       -99.90      -99.90      -99.90      -99.90      -99.90      -99.90      -99.90      -99.90      -99.90      -99.90    
       -99.90      -99.90      -99.90      -99.90      -99.90      -99.90      -99.90      -99.90      -99.90      -99.90    
  39   -99.90      -99.90      -99.90      -99.90      -99.90      -99.90      -99.90      -99.90      -99.90      -99.90    
       -99.90      -99.90      -99.90      -99.90      -99.90      -99.90      -99.90      -99.90      -99.90      -99.90    
       -99.90      -99.90      -99.90      -99.90      -99.90      -99.90      -99.90      -99.90      -99.90      -99.90    
       -99.90      -99.90      -99.90      -99.90      -99.90      -99.90      -99.90      -99.90      -99.90      -99.90    
  40   -99.90      -99.90      -99.90      -99.90      -99.90      -99.90      -99.90      -99.90      -99.90      -99.90    
       -99.90      -99.90      -99.90      -99.90      -99.90      -99.90      -99.90      -99.90      -99.90      -99.90    
       -99.90      -99.90      -99.90      -99.90      -99.90      -99.90      -99.90      -99.90      -99.90      -99.90    
       -99.90      -99.90      -99.90      -99.90      -99.90      -99.90      -99.90      -99.90      -99.90      -99.90    
1
              HEAD IN LAYER   4 AT END OF TIME STEP   2 IN STRESS PERIOD    2
  ---------------------------------------------------------------------------

            1           2           3           4           5           6           7           8           9          10
           11          12          13          14          15          16          17          18          19          20
           21          22          23          24          25          26          27          28          29          30
           31          32          33          34          35          36          37          38          39          40
 ........................................................................................................................
   1   -99.90      -99.90      -99.90      -99.90      -99.90      -99.90      -99.90      -99.90      -99.90      -99.90    
       -99.90      -99.90      -99.90      -99.90      -99.90      -99.90      -99.90      -99.90      -99.90      -99.90    
       -99.90      -99.90      -99.90      -99.90      -99.90      -99.90      -99.90      -99.90      -99.90      -99.90    
       -99.90      -99.90      -99.90      -99.90      -99.90      -99.90      -99.90      -99.90      -99.90      -99.90    
   2   -99.90      -99.90      -99.90      -99.90      -99.90      -99.90      -99.90      -99.90      -99.90      -99.90    
       -99.90      -99.90      -99.90      -99.90      -99.90      -99.90      -99.90      -99.90      -99.90      -99.90    
       -99.90      -99.90      -99.90      -99.90      -99.90      -99.90      -99.90      -99.90      -99.90      -99.90    
       -99.90      -99.90      -99.90      -99.90      -99.90      -99.90      -99.90      -99.90      -99.90      -99.90    
   3   -99.90      -99.90      -99.90      -99.90      -99.90      -99.90      -99.90      -99.90      -99.90      -99.90    
       -99.90      -99.90      -99.90      -99.90      -99.90      -99.90      -99.90      -99.90      -99.90      -99.90    
       -99.90      -99.90      -99.90      -99.90      -99.90      -99.90      -99.90      -99.90      -99.90      -99.90    
       -99.90      -99.90      -99.90      -99.90      -99.90      -99.90      -99.90      -99.90      -99.90      -99.90    
   4   -99.90      -99.90      -99.90      -99.90      -99.90      -99.90      -99.90      -99.90      -99.90      -99.90    
       -99.90      -99.90      -99.90      -99.90      -99.90      -99.90      -99.90      -99.90      -99.90      -99.90    
       -99.90      -99.90      -99.90      -99.90      -99.90      -99.90      -99.90      -99.90      -99.90      -99.90    
       -99.90      -99.90      -99.90      -99.90      -99.90      -99.90      -99.90      -99.90      -99.90      -99.90    
   5   -99.90      -99.90      -99.90      -99.90      -99.90      -99.90      -99.90      -99.90      -99.90      -99.90    
       -99.90      -99.90      -99.90      -99.90      -99.90      -99.90      -99.90      -99.90      -99.90      -99.90    
       -99.90      -99.90      -99.90      -99.90      -99.90      -99.90      -99.90      -99.90      -99.90      -99.90    
       -99.90      -99.90      -99.90      -99.90      -99.90      -99.90      -99.90      -99.90      -99.90      -99.90    
   6   -99.90      -99.90      -99.90      -99.90      -99.90      -99.90      -99.90      -99.90      -99.90      -99.90    
       -99.90      -99.90      -99.90      -99.90      -99.90      -99.90      -99.90      -99.90      -99.90      -99.90    
       -99.90      -99.90      -99.90      -99.90      -99.90      -99.90      -99.90      -99.90      -99.90      -99.90    
       -99.90      -99.90      -99.90      -99.90      -99.90      -99.90      -99.90      -99.90      -99.90      -99.90    
   7   -99.90      -99.90      -99.90      -99.90      -99.90      -99.90      -99.90      -99.90      -99.90      -99.90    
       -99.90      -99.90      -99.90      -99.90      -99.90      -99.90      -99.90      -99.90      -99.90      -99.90    
       -99.90      -99.90      -99.90      -99.90      -99.90      -99.90      -99.90      -99.90      -99.90      -99.90    
       -99.90      -99.90      -99.90      -99.90      -99.90      -99.90      -99.90      -99.90      -99.90      -99.90    
   8   -99.90      -99.90      -99.90      -99.90      -99.90      -99.90      -99.90      -99.90      -99.90      -99.90    
       -99.90      -99.90      -99.90      -99.90      -99.90      -99.90      -99.90      -99.90      -99.90      -99.90    
       -99.90      -99.90      -99.90      -99.90      -99.90      -99.90      -99.90      -99.90      -99.90      -99.90    
       -99.90      -99.90      -99.90      -99.90      -99.90      -99.90      -99.90      -99.90      -99.90      -99.90    
   9   -99.90      -99.90      -99.90      -99.90      -99.90      -99.90      -99.90      -99.90      -99.90      -99.90    
       -99.90      -99.90      -99.90      -99.90      -99.90      -99.90      -99.90      -99.90      -99.90      -99.90    
       -99.90      -99.90      -99.90      -99.90      -99.90      -99.90      -99.90      -99.90      -99.90      -99.90    
       -99.90      -99.90      -99.90      -99.90      -99.90      -99.90      -99.90      -99.90      -99.90      -99.90    
  10   -99.90      -99.90      -99.90      -99.90      -99.90      -99.90      -99.90      -99.90      -99.90      -99.90    
       -99.90      -99.90      -99.90      -99.90      -99.90      -99.90      -99.90      -99.90      -99.90      -99.90    
       -99.90      -99.90      -99.90      -99.90      -99.90      -99.90      -99.90      -99.90      -99.90      -99.90    
       -99.90      -99.90      -99.90      -99.90      -99.90      -99.90      -99.90      -99.90      -99.90      -99.90    
  11   -99.90      -99.90      -99.90      -99.90      -99.90      -99.90      -99.90      -99.90      -99.90      -99.90    
       -99.90      -99.90      -99.90      -99.90      -99.90      -99.90      -99.90      -99.90      -99.90      -99.90    
       -99.90      -99.90      -99.90      -99.90      -99.90      -99.90      -99.90      -99.90      -99.90      -99.90    
       -99.90      -99.90      -99.90      -99.90      -99.90      -99.90      -99.90      -99.90      -99.90      -99.90    
  12   -99.90      -99.90      -99.90      -99.90      -99.90      -99.90      -99.90      -99.90      -99.90      -99.90    
       -99.90      -99.90      -99.90      -99.90      -99.90      -99.90      -99.90      -99.90      -99.90      -99.90    
       -99.90      -99.90      -99.90      -99.90      -99.90      -99.90      -99.90      -99.90      -99.90      -99.90    
       -99.90      -99.90      -99.90      -99.90      -99.90      -99.90      -99.90      -99.90      -99.90      -99.90    
  13   -99.90      -99.90      -99.90      -99.90      -99.90      -99.90      -99.90      -99.90      -99.90      -99.90    
       -99.90      -99.90      -99.90      -99.90      -99.90      -99.90      -99.90      -99.90      -99.90      -99.90    
       -99.90      -99.90      -99.90      -99.90      -99.90      -99.90      -99.90      -99.90      -99.90      -99.90    
       -99.90      -99.90      -99.90      -99.90      -99.90      -99.90      -99.90      -99.90      -99.90      -99.90    
  14   -99.90      -99.90      -99.90      -99.90      -99.90      -99.90      -99.90      -99.90      -99.90      -99.90    
       -99.90      -99.90      -99.90      -99.90      -99.90      -99.90      -99.90      -99.90      -99.90      -99.90    
       -99.90      -99.90      -99.90      -99.90      -99.90      -99.90      -99.90      -99.90      -99.90      -99.90    
       -99.90      -99.90      -99.90      -99.90      -99.90      -99.90      -99.90      -99.90      -99.90      -99.90    
  15   -99.90      -99.90      -99.90      -99.90      -99.90      -99.90      -99.90      -99.90      -99.90      -99.90    
       -99.90      -99.90      -99.90      -99.90      -99.90      -99.90      -99.90      -99.90      -99.90      -99.90    
       -99.90      -99.90      -99.90      -99.90      -99.90      -99.90      -99.90      -99.90      -99.90      -99.90    
       -99.90      -99.90      -99.90      -99.90      -99.90      -99.90      -99.90      -99.90      -99.90      -99.90    
  16   -99.90      -99.90      -99.90      -99.90      -99.90      -99.90      -99.90      -99.90      -99.90      -99.90    
       -99.90      -99.90      -99.90      -99.90      -99.90      -99.90      -99.90      -99.90      -99.90      -99.90    
       -99.90      -99.90      -99.90      -99.90      -99.90      -99.90      -99.90      -99.90      -99.90      -99.90    
       -99.90      -99.90      -99.90      -99.90      -99.90      -99.90      -99.90      -99.90      -99.90      -99.90    
  17   -99.90      -99.90      -99.90      -99.90      -99.90      -99.90      -99.90      -99.90      -99.90      -99.90    
       -99.90      -99.90      -99.90      -99.90      -99.90      -99.90      -99.90      -99.90      -99.90      -99.90    
       -99.90      -99.90      -99.90      -99.90      -99.90      -99.90      -99.90      -99.90      -99.90      -99.90    
       -99.90      -99.90      -99.90      -99.90      -99.90      -99.90      -99.90      -99.90      -99.90      -99.90    
  18   -99.90      -99.90      -99.90      -99.90      -99.90      -99.90      -99.90      -99.90      -99.90      -99.90    
       -99.90      -99.90      -99.90      -99.90      -99.90      -99.90      -99.90      -99.90      -99.90      -99.90    
       -99.90      -99.90      -99.90      -99.90      -99.90      -99.90      -99.90      -99.90      -99.90      -99.90    
       -99.90      -99.90      -99.90      -99.90      -99.90      -99.90      -99.90      -99.90      -99.90      -99.90    
  19   -99.90      -99.90      -99.90      -99.90      -99.90      -99.90      -99.90      -99.90      -99.90      -99.90    
       -99.90      -99.90      -99.90      -99.90      -99.90      -99.90      -99.90      -99.90      -99.90      -99.90    
       -99.90      -99.90      -99.90      -99.90      -99.90      -99.90      -99.90      -99.90      -99.90      -99.90    
       -99.90      -99.90      -99.90      -99.90      -99.90      -99.90      -99.90      -99.90      -99.90      -99.90    
  20   -99.90      -99.90      -99.90      -99.90      -99.90      -99.90      -99.90      -99.90      -99.90      -99.90    
       -99.90      -99.90      -99.90      -99.90      -99.90      -99.90      -99.90      -99.90      -99.90      -99.90    
       -99.90      -99.90      -99.90      -99.90      -99.90      -99.90      -99.90      -99.90      -99.90      -99.90    
       -99.90      -99.90      -99.90      -99.90      -99.90      -99.90      -99.90      -99.90      -99.90      -99.90    
  21   -99.90      -99.90      -99.90      -99.90      -99.90      -99.90      -99.90      -99.90      -99.90      -99.90    
       -99.90      -99.90      -99.90      -99.90      -99.90      -99.90      -99.90      -99.90      -99.90      -99.90    
       -99.90      -99.90      -99.90      -99.90      -99.90      -99.90      -99.90      -99.90      -99.90      -99.90    
       -99.90      -99.90      -99.90      -99.90      -99.90      -99.90      -99.90      -99.90      -99.90      -99.90    
  22   -99.90      -99.90      -99.90      -99.90      -99.90      -99.90      -99.90      -99.90      -99.90      -99.90    
       -99.90      -99.90      -99.90      -99.90      -99.90      -99.90      -99.90      -99.90      -99.90      -99.90    
       -99.90      -99.90      -99.90      -99.90      -99.90      -99.90      -99.90      -99.90      -99.90      -99.90    
       -99.90      -99.90      -99.90      -99.90      -99.90      -99.90      -99.90      -99.90      -99.90      -99.90    
  23   -99.90      -99.90      -99.90      -99.90      -99.90      -99.90      -99.90      -99.90      -99.90      -99.90    
       -99.90      -99.90      -99.90      -99.90      -99.90      -99.90      -99.90      -99.90      -99.90      -99.90    
       -99.90      -99.90      -99.90      -99.90      -99.90      -99.90      -99.90      -99.90      -99.90      -99.90    
       -99.90      -99.90      -99.90      -99.90      -99.90      -99.90      -99.90      -99.90      -99.90      -99.90    
  24   -99.90      -99.90      -99.90      -99.90      -99.90      -99.90      -99.90      -99.90      -99.90      -99.90    
       -99.90      -99.90      -99.90      -99.90      -99.90      -99.90      -99.90      -99.90      -99.90      -99.90    
       -99.90      -99.90      -99.90      -99.90      -99.90      -99.90      -99.90      -99.90      -99.90      -99.90    
       -99.90      -99.90      -99.90      -99.90      -99.90      -99.90      -99.90      -99.90      -99.90      -99.90    
  25   -99.90      -99.90      -99.90      -99.90      -99.90      -99.90      -99.90      -99.90      -99.90      -99.90    
       -99.90      -99.90      -99.90      -99.90      -99.90      -99.90      -99.90      -99.90      -99.90      -99.90    
       -99.90      -99.90      -99.90      -99.90      -99.90      -99.90      -99.90      -99.90      -99.90      -99.90    
       -99.90      -99.90      -99.90      -99.90      -99.90      -99.90      -99.90      -99.90      -99.90      -99.90    
  26   -99.90      -99.90      -99.90      -99.90      -99.90      -99.90      -99.90      -99.90      -99.90      -99.90    
       -99.90      -99.90      -99.90      -99.90      -99.90      -99.90      -99.90      -99.90      -99.90      -99.90    
       -99.90      -99.90      -99.90      -99.90      -99.90      -99.90      -99.90      -99.90      -99.90      -99.90    
       -99.90      -99.90      -99.90      -99.90      -99.90      -99.90      -99.90      -99.90      -99.90      -99.90    
  27   -99.90      -99.90      -99.90      -99.90      -99.90      -99.90      -99.90      -99.90      -99.90      -99.90    
       -99.90      -99.90      -99.90      -99.90      -99.90      -99.90      -99.90      -99.90      -99.90      -99.90    
       -99.90      -99.90      -99.90      -99.90      -99.90      -99.90      -99.90      -99.90      -99.90      -99.90    
       -99.90      -99.90      -99.90      -99.90      -99.90      -99.90      -99.90      -99.90      -99.90      -99.90    
  28   -99.90      -99.90      -99.90      -99.90      -99.90      -99.90      -99.90      -99.90      -99.90      -99.90    
       -99.90      -99.90      -99.90      -99.90      -99.90      -99.90      -99.90      -99.90      -99.90      -99.90    
       -99.90      -99.90      -99.90      -99.90      -99.90      -99.90      -99.90      -99.90      -99.90      -99.90    
       -99.90      -99.90      -99.90      -99.90      -99.90      -99.90      -99.90      -99.90      -99.90      -99.90    
  29   -99.90      -99.90      -99.90      -99.90      -99.90      -99.90      -99.90      -99.90      -99.90      -99.90    
       -99.90      -99.90      -99.90      -99.90      -99.90      -99.90      -99.90      -99.90      -99.90      -99.90    
       -99.90      -99.90      -99.90      -99.90      -99.90      -99.90      -99.90      -99.90      -99.90      -99.90    
       -99.90      -99.90      -99.90      -99.90      -99.90      -99.90      -99.90      -99.90      -99.90      -99.90    
  30   -99.90      -99.90      -99.90      -99.90      -99.90      -99.90      -99.90      -99.90      -99.90      -99.90    
       -99.90      -99.90      -99.90      -99.90      -99.90      -99.90      -99.90      -99.90      -99.90      -99.90    
       -99.90      -99.90      -99.90      -99.90      -99.90      -99.90      -99.90      -99.90      -99.90      -99.90    
       -99.90      -99.90      -99.90      -99.90      -99.90      -99.90      -99.90      -99.90      -99.90      -99.90    
  31   -99.90      -99.90      -99.90      -99.90      -99.90      -99.90      -99.90      -99.90      -99.90      -99.90    
       -99.90      -99.90      -99.90      -99.90      -99.90      -99.90      -99.90      -99.90      -99.90      -99.90    
       -99.90      -99.90      -99.90      -99.90      -99.90      -99.90      -99.90      -99.90      -99.90      -99.90    
       -99.90      -99.90      -99.90      -99.90      -99.90      -99.90      -99.90      -99.90      -99.90      -99.90    
  32   -99.90      -99.90      -99.90      -99.90      -99.90      -99.90      -99.90      -99.90      -99.90      -99.90    
       -99.90      -99.90      -99.90      -99.90      -99.90      -99.90      -99.90      -99.90      -99.90      -99.90    
       -99.90      -99.90      -99.90      -99.90      -99.90      -99.90      -99.90      -99.90      -99.90      -99.90    
       -99.90      -99.90      -99.90      -99.90      -99.90      -99.90      -99.90      -99.90      -99.90      -99.90    
  33   -99.90      -99.90      -99.90      -99.90      -99.90      -99.90      -99.90      -99.90      -99.90      -99.90    
       -99.90      -99.90      -99.90      -99.90      -99.90      -99.90      -99.90      -99.90      -99.90      -99.90    
       -99.90      -99.90      -99.90      -99.90      -99.90      -99.90      -99.90      -99.90      -99.90      -99.90    
       -99.90      -99.90      -99.90      -99.90      -99.90      -99.90      -99.90      -99.90      -99.90      -99.90    
  34   -99.90      -99.90      -99.90      -99.90      -99.90      -99.90      -99.90      -99.90      -99.90      -99.90    
       -99.90      -99.90      -99.90      -99.90      -99.90      -99.90      -99.90      -99.90      -99.90      -99.90    
       -99.90      -99.90      -99.90      -99.90      -99.90      -99.90      -99.90      -99.90      -99.90      -99.90    
       -99.90      -99.90      -99.90      -99.90      -99.90      -99.90      -99.90      -99.90      -99.90      -99.90    
  35   -99.90      -99.90      -99.90      -99.90      -99.90      -99.90      -99.90      -99.90      -99.90      -99.90    
       -99.90      -99.90      -99.90      -99.90      -99.90      -99.90      -99.90      -99.90      -99.90      -99.90    
       -99.90      -99.90      -99.90      -99.90      -99.90      -99.90      -99.90      -99.90      -99.90      -99.90    
       -99.90      -99.90      -99.90      -99.90      -99.90      -99.90      -99.90      -99.90      -99.90      -99.90    
  36   -99.90      -99.90      -99.90      -99.90      -99.90      -99.90      -99.90      -99.90      -99.90      -99.90    
       -99.90      -99.90      -99.90      -99.90      -99.90      -99.90      -99.90      -99.90      -99.90      -99.90    
       -99.90      -99.90      -99.90      -99.90      -99.90      -99.90      -99.90      -99.90      -99.90      -99.90    
       -99.90      -99.90      -99.90      -99.90      -99.90      -99.90      -99.90      -99.90      -99.90      -99.90    
  37   -99.90      -99.90      -99.90      -99.90      -99.90      -99.90      -99.90      -99.90      -99.90      -99.90    
       -99.90      -99.90      -99.90      -99.90      -99.90      -99.90      -99.90      -99.90      -99.90      -99.90    
       -99.90      -99.90      -99.90      -99.90      -99.90      -99.90      -99.90      -99.90      -99.90      -99.90    
       -99.90      -99.90      -99.90      -99.90      -99.90      -99.90      -99.90      -99.90      -99.90      -99.90    
  38   -99.90      -99.90      -99.90      -99.90      -99.90      -99.90      -99.90      -99.90      -99.90      -99.90    
       -99.90      -99.90      -99.90      -99.90      -99.90      -99.90      -99.90      -99.90      -99.90      -99.90    
       -99.90      -99.90      -99.90      -99.90      -99.90      -99.90      -99.90      -99.90      -99.90      -99.90    
       -99.90      -99.90      -99.90      -99.90      -99.90      -99.90      -99.90      -99.90      -99.90      -99.90    
  39   -99.90      -99.90      -99.90      -99.90      -99.90      -99.90      -99.90      -99.90      -99.90      -99.90    
       -99.90      -99.90      -99.90      -99.90      -99.90      -99.90      -99.90      -99.90      -99.90      -99.90    
       -99.90      -99.90      -99.90      -99.90      -99.90      -99.90      -99.90      -99.90      -99.90      -99.90    
       -99.90      -99.90      -99.90      -99.90      -99.90      -99.90      -99.90      -99.90      -99.90      -99.90    
  40   -99.90      -99.90      -99.90      -99.90      -99.90      -99.90      -99.90      -99.90      -99.90      -99.90    
       -99.90      -99.90      -99.90      -99.90      -99.90      -99.90      -99.90      -99.90      -99.90      -99.90    
       -99.90      -99.90      -99.90      -99.90      -99.90      -99.90      -99.90      -99.90      -99.90      -99.90    
       -99.90      -99.90      -99.90      -99.90      -99.90      -99.90      -99.90      -99.90      -99.90      -99.90    
1
              HEAD IN LAYER   5 AT END OF TIME STEP   2 IN STRESS PERIOD    2
  ---------------------------------------------------------------------------

            1           2           3           4           5           6           7           8           9          10
           11          12          13          14          15          16          17          18          19          20
           21          22          23          24          25          26          27          28          29          30
           31          32          33          34          35          36          37          38          39          40
 ........................................................................................................................
   1    48.76       47.41      -99.90      -99.90      -99.90      -99.90      -99.90      -99.90      -99.90      -99.90    
       -99.90      -99.90      -99.90      -99.90      -99.90      -99.90      -99.90      -99.90      -99.90      -99.90    
       -99.90      -99.90      -99.90      -99.90      -99.90      -99.90      -99.90      -99.90      -99.90      -99.90    
       -99.90      -99.90      -99.90      -99.90      -99.90      -99.90      -99.90      -99.90      -99.90      -99.90    
   2    47.41       46.15      -99.90      -99.90      -99.90      -99.90      -99.90      -99.90      -99.90      -99.90    
       -99.90      -99.90      -99.90      -99.90      -99.90      -99.90      -99.90      -99.90      -99.90      -99.90    
       -99.90      -99.90      -99.90      -99.90      -99.90      -99.90      -99.90      -99.90      -99.90      -99.90    
       -99.90      -99.90      -99.90      -99.90      -99.90      -99.90      -99.90      -99.90      -99.90      -99.90    
   3   -99.90      -99.90      -99.90      -99.90      -99.90      -99.90      -99.90      -99.90      -99.90      -99.90    
       -99.90      -99.90      -99.90      -99.90      -99.90      -99.90      -99.90      -99.90      -99.90      -99.90    
       -99.90      -99.90      -99.90      -99.90      -99.90      -99.90      -99.90      -99.90      -99.90      -99.90    
       -99.90      -99.90      -99.90      -99.90      -99.90      -99.90      -99.90      -99.90      -99.90      -99.90    
   4   -99.90      -99.90      -99.90      -99.90      -99.90      -99.90      -99.90      -99.90      -99.90      -99.90    
       -99.90      -99.90      -99.90      -99.90      -99.90      -99.90      -99.90      -99.90      -99.90      -99.90    
       -99.90      -99.90      -99.90      -99.90      -99.90      -99.90      -99.90      -99.90      -99.90      -99.90    
       -99.90      -99.90      -99.90      -99.90      -99.90      -99.90      -99.90      -99.90      -99.90      -99.90    
   5   -99.90      -99.90      -99.90      -99.90      -99.90      -99.90      -99.90      -99.90      -99.90      -99.90    
       -99.90      -99.90      -99.90      -99.90      -99.90      -99.90      -99.90      -99.90      -99.90      -99.90    
       -99.90      -99.90      -99.90      -99.90      -99.90      -99.90      -99.90      -99.90      -99.90      -99.90    
       -99.90      -99.90      -99.90      -99.90      -99.90      -99.90      -99.90      -99.90      -99.90      -99.90    
   6   -99.90      -99.90      -99.90      -99.90      -99.90      -99.90      -99.90      -99.90      -99.90      -99.90    
       -99.90      -99.90      -99.90      -99.90      -99.90      -99.90      -99.90      -99.90      -99.90      -99.90    
       -99.90      -99.90      -99.90      -99.90      -99.90      -99.90      -99.90      -99.90      -99.90      -99.90    
       -99.90      -99.90      -99.90      -99.90      -99.90      -99.90      -99.90      -99.90      -99.90      -99.90    
   7   -99.90      -99.90      -99.90      -99.90      -99.90      -99.90      -99.90      -99.90      -99.90      -99.90    
       -99.90      -99.90      -99.90      -99.90      -99.90      -99.90      -99.90      -99.90      -99.90      -99.90    
       -99.90      -99.90      -99.90      -99.90      -99.90      -99.90      -99.90      -99.90      -99.90      -99.90    
       -99.90      -99.90      -99.90      -99.90      -99.90      -99.90      -99.90      -99.90      -99.90      -99.90    
   8   -99.90      -99.90      -99.90      -99.90      -99.90      -99.90      -99.90      -99.90      -99.90      -99.90    
       -99.90      -99.90      -99.90      -99.90      -99.90      -99.90      -99.90      -99.90      -99.90      -99.90    
       -99.90      -99.90      -99.90      -99.90      -99.90      -99.90      -99.90      -99.90      -99.90      -99.90    
       -99.90      -99.90      -99.90      -99.90      -99.90      -99.90      -99.90      -99.90      -99.90      -99.90    
   9   -99.90      -99.90      -99.90      -99.90      -99.90      -99.90      -99.90      -99.90      -99.90      -99.90    
       -99.90      -99.90      -99.90      -99.90      -99.90      -99.90      -99.90      -99.90      -99.90      -99.90    
       -99.90      -99.90      -99.90      -99.90      -99.90      -99.90      -99.90      -99.90      -99.90      -99.90    
       -99.90      -99.90      -99.90      -99.90      -99.90      -99.90      -99.90      -99.90      -99.90      -99.90    
  10   -99.90      -99.90      -99.90      -99.90      -99.90      -99.90      -99.90      -99.90      -99.90      -99.90    
       -99.90      -99.90      -99.90      -99.90      -99.90      -99.90      -99.90      -99.90      -99.90      -99.90    
       -99.90      -99.90      -99.90      -99.90      -99.90      -99.90      -99.90      -99.90      -99.90      -99.90    
       -99.90      -99.90      -99.90      -99.90      -99.90      -99.90      -99.90      -99.90      -99.90      -99.90    
  11   -99.90      -99.90      -99.90      -99.90      -99.90      -99.90      -99.90      -99.90      -99.90      -99.90    
       -99.90      -99.90      -99.90      -99.90      -99.90      -99.90      -99.90      -99.90      -99.90      -99.90    
       -99.90      -99.90      -99.90      -99.90      -99.90      -99.90      -99.90      -99.90      -99.90      -99.90    
       -99.90      -99.90      -99.90      -99.90      -99.90      -99.90      -99.90      -99.90      -99.90      -99.90    
  12   -99.90      -99.90      -99.90      -99.90      -99.90      -99.90      -99.90      -99.90      -99.90      -99.90    
       -99.90      -99.90      -99.90      -99.90      -99.90      -99.90      -99.90      -99.90      -99.90      -99.90    
       -99.90      -99.90      -99.90      -99.90      -99.90      -99.90      -99.90      -99.90      -99.90      -99.90    
       -99.90      -99.90      -99.90      -99.90      -99.90      -99.90      -99.90      -99.90      -99.90      -99.90    
  13   -99.90      -99.90      -99.90      -99.90      -99.90      -99.90      -99.90      -99.90      -99.90      -99.90    
       -99.90      -99.90      -99.90      -99.90      -99.90      -99.90      -99.90      -99.90      -99.90      -99.90    
       -99.90      -99.90      -99.90      -99.90      -99.90      -99.90      -99.90      -99.90      -99.90      -99.90    
       -99.90      -99.90      -99.90      -99.90      -99.90      -99.90      -99.90      -99.90      -99.90      -99.90    
  14   -99.90      -99.90      -99.90      -99.90      -99.90      -99.90      -99.90      -99.90      -99.90      -99.90    
       -99.90      -99.90      -99.90      -99.90      -99.90      -99.90      -99.90      -99.90      -99.90      -99.90    
       -99.90      -99.90      -99.90      -99.90      -99.90      -99.90      -99.90      -99.90      -99.90      -99.90    
       -99.90      -99.90      -99.90      -99.90      -99.90      -99.90      -99.90      -99.90      -99.90      -99.90    
  15   -99.90      -99.90      -99.90      -99.90      -99.90      -99.90      -99.90      -99.90      -99.90      -99.90    
       -99.90      -99.90      -99.90      -99.90      -99.90      -99.90      -99.90      -99.90      -99.90      -99.90    
       -99.90      -99.90      -99.90      -99.90      -99.90      -99.90      -99.90      -99.90      -99.90      -99.90    
       -99.90      -99.90      -99.90      -99.90      -99.90      -99.90      -99.90      -99.90      -99.90      -99.90    
  16   -99.90      -99.90      -99.90      -99.90      -99.90      -99.90      -99.90      -99.90      -99.90      -99.90    
       -99.90      -99.90      -99.90      -99.90      -99.90      -99.90      -99.90      -99.90      -99.90      -99.90    
       -99.90      -99.90      -99.90      -99.90      -99.90      -99.90      -99.90      -99.90      -99.90      -99.90    
       -99.90      -99.90      -99.90      -99.90      -99.90      -99.90      -99.90      -99.90      -99.90      -99.90    
  17   -99.90      -99.90      -99.90      -99.90      -99.90      -99.90      -99.90      -99.90      -99.90      -99.90    
       -99.90      -99.90      -99.90      -99.90      -99.90      -99.90      -99.90      -99.90      -99.90      -99.90    
       -99.90      -99.90      -99.90      -99.90      -99.90      -99.90      -99.90      -99.90      -99.90      -99.90    
       -99.90      -99.90      -99.90      -99.90      -99.90      -99.90      -99.90      -99.90      -99.90      -99.90    
  18   -99.90      -99.90      -99.90      -99.90      -99.90      -99.90      -99.90      -99.90      -99.90      -99.90    
       -99.90      -99.90      -99.90      -99.90      -99.90      -99.90      -99.90      -99.90      -99.90      -99.90    
       -99.90      -99.90      -99.90      -99.90      -99.90      -99.90      -99.90      -99.90      -99.90      -99.90    
       -99.90      -99.90      -99.90      -99.90      -99.90      -99.90      -99.90      -99.90      -99.90      -99.90    
  19   -99.90      -99.90      -99.90      -99.90      -99.90      -99.90      -99.90      -99.90      -99.90      -99.90    
       -99.90      -99.90      -99.90      -99.90      -99.90      -99.90      -99.90      -99.90      -99.90      -99.90    
       -99.90      -99.90      -99.90      -99.90      -99.90      -99.90      -99.90      -99.90      -99.90      -99.90    
       -99.90      -99.90      -99.90      -99.90      -99.90      -99.90      -99.90      -99.90      -99.90      -99.90    
  20   -99.90      -99.90      -99.90      -99.90      -99.90      -99.90      -99.90      -99.90      -99.90      -99.90    
       -99.90      -99.90      -99.90      -99.90      -99.90      -99.90      -99.90      -99.90      -99.90      -99.90    
       -99.90      -99.90      -99.90      -99.90      -99.90      -99.90      -99.90      -99.90      -99.90      -99.90    
       -99.90      -99.90      -99.90      -99.90      -99.90      -99.90      -99.90      -99.90      -99.90      -99.90    
  21   -99.90      -99.90      -99.90      -99.90      -99.90      -99.90      -99.90      -99.90      -99.90      -99.90    
       -99.90      -99.90      -99.90      -99.90      -99.90      -99.90      -99.90      -99.90      -99.90      -99.90    
       -99.90      -99.90      -99.90      -99.90      -99.90      -99.90      -99.90      -99.90      -99.90      -99.90    
       -99.90      -99.90      -99.90      -99.90      -99.90      -99.90      -99.90      -99.90      -99.90      -99.90    
  22   -99.90      -99.90      -99.90      -99.90      -99.90      -99.90      -99.90      -99.90      -99.90      -99.90    
       -99.90      -99.90      -99.90      -99.90      -99.90      -99.90      -99.90      -99.90      -99.90      -99.90    
       -99.90      -99.90      -99.90      -99.90      -99.90      -99.90      -99.90      -99.90      -99.90      -99.90    
       -99.90      -99.90      -99.90      -99.90      -99.90      -99.90      -99.90      -99.90      -99.90      -99.90    
  23   -99.90      -99.90      -99.90      -99.90      -99.90      -99.90      -99.90      -99.90      -99.90      -99.90    
       -99.90      -99.90      -99.90      -99.90      -99.90      -99.90      -99.90      -99.90      -99.90      -99.90    
       -99.90      -99.90      -99.90      -99.90      -99.90      -99.90      -99.90      -99.90      -99.90      -99.90    
       -99.90      -99.90      -99.90      -99.90      -99.90      -99.90      -99.90      -99.90      -99.90      -99.90    
  24   -99.90      -99.90      -99.90      -99.90      -99.90      -99.90      -99.90      -99.90      -99.90      -99.90    
       -99.90      -99.90      -99.90      -99.90      -99.90      -99.90      -99.90      -99.90      -99.90      -99.90    
       -99.90      -99.90      -99.90      -99.90      -99.90      -99.90      -99.90      -99.90      -99.90      -99.90    
       -99.90      -99.90      -99.90      -99.90      -99.90      -99.90      -99.90      -99.90      -99.90      -99.90    
  25   -99.90      -99.90      -99.90      -99.90      -99.90      -99.90      -99.90      -99.90      -99.90      -99.90    
       -99.90      -99.90      -99.90      -99.90      -99.90      -99.90      -99.90      -99.90      -99.90      -99.90    
       -99.90      -99.90      -99.90      -99.90      -99.90      -99.90      -99.90      -99.90      -99.90      -99.90    
       -99.90      -99.90      -99.90      -99.90      -99.90      -99.90      -99.90      -99.90      -99.90      -99.90    
  26   -99.90      -99.90      -99.90      -99.90      -99.90      -99.90      -99.90      -99.90      -99.90      -99.90    
       -99.90      -99.90      -99.90      -99.90      -99.90      -99.90      -99.90      -99.90      -99.90      -99.90    
       -99.90      -99.90      -99.90      -99.90      -99.90      -99.90      -99.90      -99.90      -99.90      -99.90    
       -99.90      -99.90      -99.90      -99.90      -99.90      -99.90      -99.90      -99.90      -99.90      -99.90    
  27   -99.90      -99.90      -99.90      -99.90      -99.90      -99.90      -99.90      -99.90      -99.90      -99.90    
       -99.90      -99.90      -99.90      -99.90      -99.90      -99.90      -99.90      -99.90      -99.90      -99.90    
       -99.90      -99.90      -99.90      -99.90      -99.90      -99.90      -99.90      -99.90      -99.90      -99.90    
       -99.90      -99.90      -99.90      -99.90      -99.90      -99.90      -99.90      -99.90      -99.90      -99.90    
  28   -99.90      -99.90      -99.90      -99.90      -99.90      -99.90      -99.90      -99.90      -99.90      -99.90    
       -99.90      -99.90      -99.90      -99.90      -99.90      -99.90      -99.90      -99.90      -99.90      -99.90    
       -99.90      -99.90      -99.90      -99.90      -99.90      -99.90      -99.90      -99.90      -99.90      -99.90    
       -99.90      -99.90      -99.90      -99.90      -99.90      -99.90      -99.90      -99.90      -99.90      -99.90    
  29   -99.90      -99.90      -99.90      -99.90      -99.90      -99.90      -99.90      -99.90      -99.90      -99.90    
       -99.90      -99.90      -99.90      -99.90      -99.90      -99.90      -99.90      -99.90      -99.90      -99.90    
       -99.90      -99.90      -99.90      -99.90      -99.90      -99.90      -99.90      -99.90      -99.90      -99.90    
       -99.90      -99.90      -99.90      -99.90      -99.90      -99.90      -99.90      -99.90      -99.90      -99.90    
  30   -99.90      -99.90      -99.90      -99.90      -99.90      -99.90      -99.90      -99.90      -99.90      -99.90    
       -99.90      -99.90      -99.90      -99.90      -99.90      -99.90      -99.90      -99.90      -99.90      -99.90    
       -99.90      -99.90      -99.90      -99.90      -99.90      -99.90      -99.90      -99.90      -99.90      -99.90    
       -99.90      -99.90      -99.90      -99.90      -99.90      -99.90      -99.90      -99.90      -99.90      -99.90    
  31   -99.90      -99.90      -99.90      -99.90      -99.90      -99.90      -99.90      -99.90      -99.90      -99.90    
       -99.90      -99.90      -99.90      -99.90      -99.90      -99.90      -99.90      -99.90      -99.90      -99.90    
       -99.90      -99.90      -99.90      -99.90      -99.90      -99.90      -99.90      -99.90      -99.90      -99.90    
       -99.90      -99.90      -99.90      -99.90      -99.90      -99.90      -99.90      -99.90      -99.90      -99.90    
  32   -99.90      -99.90      -99.90      -99.90      -99.90      -99.90      -99.90      -99.90      -99.90      -99.90    
       -99.90      -99.90      -99.90      -99.90      -99.90      -99.90      -99.90      -99.90      -99.90      -99.90    
       -99.90      -99.90      -99.90      -99.90      -99.90      -99.90      -99.90      -99.90      -99.90      -99.90    
       -99.90      -99.90      -99.90      -99.90      -99.90      -99.90      -99.90      -99.90      -99.90      -99.90    
  33   -99.90      -99.90      -99.90      -99.90      -99.90      -99.90      -99.90      -99.90      -99.90      -99.90    
       -99.90      -99.90      -99.90      -99.90      -99.90      -99.90      -99.90      -99.90      -99.90      -99.90    
       -99.90      -99.90      -99.90      -99.90      -99.90      -99.90      -99.90      -99.90      -99.90      -99.90    
       -99.90      -99.90      -99.90      -99.90      -99.90      -99.90      -99.90      -99.90      -99.90      -99.90    
  34   -99.90      -99.90      -99.90      -99.90      -99.90      -99.90      -99.90      -99.90      -99.90      -99.90    
       -99.90      -99.90      -99.90      -99.90      -99.90      -99.90      -99.90      -99.90      -99.90      -99.90    
       -99.90      -99.90      -99.90      -99.90      -99.90      -99.90      -99.90      -99.90      -99.90      -99.90    
       -99.90      -99.90      -99.90      -99.90      -99.90      -99.90      -99.90      -99.90      -99.90      -99.90    
  35   -99.90      -99.90      -99.90      -99.90      -99.90      -99.90      -99.90      -99.90      -99.90      -99.90    
       -99.90      -99.90      -99.90      -99.90      -99.90      -99.90      -99.90      -99.90      -99.90      -99.90    
       -99.90      -99.90      -99.90      -99.90      -99.90      -99.90      -99.90      -99.90      -99.90      -99.90    
       -99.90      -99.90      -99.90      -99.90      -99.90      -99.90      -99.90      -99.90      -99.90      -99.90    
  36   -99.90      -99.90      -99.90      -99.90      -99.90      -99.90      -99.90      -99.90      -99.90      -99.90    
       -99.90      -99.90      -99.90      -99.90      -99.90      -99.90      -99.90      -99.90      -99.90      -99.90    
       -99.90      -99.90      -99.90      -99.90      -99.90      -99.90      -99.90      -99.90      -99.90      -99.90    
       -99.90      -99.90      -99.90      -99.90      -99.90      -99.90      -99.90      -99.90      -99.90      -99.90    
  37   -99.90      -99.90      -99.90      -99.90      -99.90      -99.90      -99.90      -99.90      -99.90      -99.90    
       -99.90      -99.90      -99.90      -99.90      -99.90      -99.90      -99.90      -99.90      -99.90      -99.90    
       -99.90      -99.90      -99.90      -99.90      -99.90      -99.90      -99.90      -99.90      -99.90      -99.90    
       -99.90      -99.90      -99.90      -99.90      -99.90      -99.90      -99.90      -99.90      -99.90      -99.90    
  38   -99.90      -99.90      -99.90      -99.90      -99.90      -99.90      -99.90      -99.90      -99.90      -99.90    
       -99.90      -99.90      -99.90      -99.90      -99.90      -99.90      -99.90      -99.90      -99.90      -99.90    
       -99.90      -99.90      -99.90      -99.90      -99.90      -99.90      -99.90      -99.90      -99.90      -99.90    
       -99.90      -99.90      -99.90      -99.90      -99.90      -99.90      -99.90      -99.90      -99.90      -99.90    
  39   -99.90      -99.90      -99.90      -99.90      -99.90      -99.90      -99.90      -99.90      -99.90      -99.90    
       -99.90      -99.90      -99.90      -99.90      -99.90      -99.90      -99.90      -99.90      -99.90      -99.90    
       -99.90      -99.90      -99.90      -99.90      -99.90      -99.90      -99.90      -99.90      -99.90      -99.90    
       -99.90      -99.90      -99.90      -99.90      -99.90      -99.90      -99.90      -99.90      -99.90      -99.90    
  40   -99.90      -99.90      -99.90      -99.90      -99.90      -99.90      -99.90      -99.90      -99.90      -99.90    
       -99.90      -99.90      -99.90      -99.90      -99.90      -99.90      -99.90      -99.90      -99.90      -99.90    
       -99.90      -99.90      -99.90      -99.90      -99.90      -99.90      -99.90      -99.90      -99.90      -99.90    
       -99.90      -99.90      -99.90      -99.90      -99.90      -99.90      -99.90      -99.90      -99.90      -99.90    
1
              HEAD IN LAYER   6 AT END OF TIME STEP   2 IN STRESS PERIOD    2
  ---------------------------------------------------------------------------

            1           2           3           4           5           6           7           8           9          10
           11          12          13          14          15          16          17          18          19          20
           21          22          23          24          25          26          27          28          29          30
           31          32          33          34          35          36          37          38          39          40
 ........................................................................................................................
   1    47.84       46.43      -99.90      -99.90      -99.90      -99.90      -99.90      -99.90      -99.90      -99.90    
       -99.90      -99.90      -99.90      -99.90      -99.90      -99.90      -99.90      -99.90      -99.90      -99.90    
       -99.90      -99.90      -99.90      -99.90      -99.90      -99.90      -99.90      -99.90      -99.90      -99.90    
       -99.90      -99.90      -99.90      -99.90      -99.90      -99.90      -99.90      -99.90      -99.90      -99.90    
   2    46.43       45.15      -99.90      -99.90      -99.90      -99.90      -99.90      -99.90      -99.90      -99.90    
       -99.90      -99.90      -99.90      -99.90      -99.90      -99.90      -99.90      -99.90      -99.90      -99.90    
       -99.90      -99.90      -99.90      -99.90      -99.90      -99.90      -99.90      -99.90      -99.90      -99.90    
       -99.90      -99.90      -99.90      -99.90      -99.90      -99.90      -99.90      -99.90      -99.90      -99.90    
   3   -99.90      -99.90      -99.90      -99.90      -99.90      -99.90      -99.90      -99.90      -99.90      -99.90    
       -99.90      -99.90      -99.90      -99.90      -99.90      -99.90      -99.90      -99.90      -99.90      -99.90    
       -99.90      -99.90      -99.90      -99.90      -99.90      -99.90      -99.90      -99.90      -99.90      -99.90    
       -99.90      -99.90      -99.90      -99.90      -99.90      -99.90      -99.90      -99.90      -99.90      -99.90    
   4   -99.90      -99.90      -99.90      -99.90      -99.90      -99.90      -99.90      -99.90      -99.90      -99.90    
       -99.90      -99.90      -99.90      -99.90      -99.90      -99.90      -99.90      -99.90      -99.90      -99.90    
       -99.90      -99.90      -99.90      -99.90      -99.90      -99.90      -99.90      -99.90      -99.90      -99.90    
       -99.90      -99.90      -99.90      -99.90      -99.90      -99.90      -99.90      -99.90      -99.90      -99.90    
   5   -99.90      -99.90      -99.90      -99.90      -99.90      -99.90      -99.90      -99.90      -99.90      -99.90    
       -99.90      -99.90      -99.90      -99.90      -99.90      -99.90      -99.90      -99.90      -99.90      -99.90    
       -99.90      -99.90      -99.90      -99.90      -99.90      -99.90      -99.90      -99.90      -99.90      -99.90    
       -99.90      -99.90      -99.90      -99.90      -99.90      -99.90      -99.90      -99.90      -99.90      -99.90    
   6   -99.90      -99.90      -99.90      -99.90      -99.90      -99.90      -99.90      -99.90      -99.90      -99.90    
       -99.90      -99.90      -99.90      -99.90      -99.90      -99.90      -99.90      -99.90      -99.90      -99.90    
       -99.90      -99.90      -99.90      -99.90      -99.90      -99.90      -99.90      -99.90      -99.90      -99.90    
       -99.90      -99.90      -99.90      -99.90      -99.90      -99.90      -99.90      -99.90      -99.90      -99.90    
   7   -99.90      -99.90      -99.90      -99.90      -99.90      -99.90      -99.90      -99.90      -99.90      -99.90    
       -99.90      -99.90      -99.90      -99.90      -99.90      -99.90      -99.90      -99.90      -99.90      -99.90    
       -99.90      -99.90      -99.90      -99.90      -99.90      -99.90      -99.90      -99.90      -99.90      -99.90    
       -99.90      -99.90      -99.90      -99.90      -99.90      -99.90      -99.90      -99.90      -99.90      -99.90    
   8   -99.90      -99.90      -99.90      -99.90      -99.90      -99.90      -99.90      -99.90      -99.90      -99.90    
       -99.90      -99.90      -99.90      -99.90      -99.90      -99.90      -99.90      -99.90      -99.90      -99.90    
       -99.90      -99.90      -99.90      -99.90      -99.90      -99.90      -99.90      -99.90      -99.90      -99.90    
       -99.90      -99.90      -99.90      -99.90      -99.90      -99.90      -99.90      -99.90      -99.90      -99.90    
   9   -99.90      -99.90      -99.90      -99.90      -99.90      -99.90      -99.90      -99.90      -99.90      -99.90    
       -99.90      -99.90      -99.90      -99.90      -99.90      -99.90      -99.90      -99.90      -99.90      -99.90    
       -99.90      -99.90      -99.90      -99.90      -99.90      -99.90      -99.90      -99.90      -99.90      -99.90    
       -99.90      -99.90      -99.90      -99.90      -99.90      -99.90      -99.90      -99.90      -99.90      -99.90    
  10   -99.90      -99.90      -99.90      -99.90      -99.90      -99.90      -99.90      -99.90      -99.90      -99.90    
       -99.90      -99.90      -99.90      -99.90      -99.90      -99.90      -99.90      -99.90      -99.90      -99.90    
       -99.90      -99.90      -99.90      -99.90      -99.90      -99.90      -99.90      -99.90      -99.90      -99.90    
       -99.90      -99.90      -99.90      -99.90      -99.90      -99.90      -99.90      -99.90      -99.90      -99.90    
  11   -99.90      -99.90      -99.90      -99.90      -99.90      -99.90      -99.90      -99.90      -99.90      -99.90    
       -99.90      -99.90      -99.90      -99.90      -99.90      -99.90      -99.90      -99.90      -99.90      -99.90    
       -99.90      -99.90      -99.90      -99.90      -99.90      -99.90      -99.90      -99.90      -99.90      -99.90    
       -99.90      -99.90      -99.90      -99.90      -99.90      -99.90      -99.90      -99.90      -99.90      -99.90    
  12   -99.90      -99.90      -99.90      -99.90      -99.90      -99.90      -99.90      -99.90      -99.90      -99.90    
       -99.90      -99.90      -99.90      -99.90      -99.90      -99.90      -99.90      -99.90      -99.90      -99.90    
       -99.90      -99.90      -99.90      -99.90      -99.90      -99.90      -99.90      -99.90      -99.90      -99.90    
       -99.90      -99.90      -99.90      -99.90      -99.90      -99.90      -99.90      -99.90      -99.90      -99.90    
  13   -99.90      -99.90      -99.90      -99.90      -99.90      -99.90      -99.90      -99.90      -99.90      -99.90    
       -99.90      -99.90      -99.90      -99.90      -99.90      -99.90      -99.90      -99.90      -99.90      -99.90    
       -99.90      -99.90      -99.90      -99.90      -99.90      -99.90      -99.90      -99.90      -99.90      -99.90    
       -99.90      -99.90      -99.90      -99.90      -99.90      -99.90      -99.90      -99.90      -99.90      -99.90    
  14   -99.90      -99.90      -99.90      -99.90      -99.90      -99.90      -99.90      -99.90      -99.90      -99.90    
       -99.90      -99.90      -99.90      -99.90      -99.90      -99.90      -99.90      -99.90      -99.90      -99.90    
       -99.90      -99.90      -99.90      -99.90      -99.90      -99.90      -99.90      -99.90      -99.90      -99.90    
       -99.90      -99.90      -99.90      -99.90      -99.90      -99.90      -99.90      -99.90      -99.90      -99.90    
  15   -99.90      -99.90      -99.90      -99.90      -99.90      -99.90      -99.90      -99.90      -99.90      -99.90    
       -99.90      -99.90      -99.90      -99.90      -99.90      -99.90      -99.90      -99.90      -99.90      -99.90    
       -99.90      -99.90      -99.90      -99.90      -99.90      -99.90      -99.90      -99.90      -99.90      -99.90    
       -99.90      -99.90      -99.90      -99.90      -99.90      -99.90      -99.90      -99.90      -99.90      -99.90    
  16   -99.90      -99.90      -99.90      -99.90      -99.90      -99.90      -99.90      -99.90      -99.90      -99.90    
       -99.90      -99.90      -99.90      -99.90      -99.90      -99.90      -99.90      -99.90      -99.90      -99.90    
       -99.90      -99.90      -99.90      -99.90      -99.90      -99.90      -99.90      -99.90      -99.90      -99.90    
       -99.90      -99.90      -99.90      -99.90      -99.90      -99.90      -99.90      -99.90      -99.90      -99.90    
  17   -99.90      -99.90      -99.90      -99.90      -99.90      -99.90      -99.90      -99.90      -99.90      -99.90    
       -99.90      -99.90      -99.90      -99.90      -99.90      -99.90      -99.90      -99.90      -99.90      -99.90    
       -99.90      -99.90      -99.90      -99.90      -99.90      -99.90      -99.90      -99.90      -99.90      -99.90    
       -99.90      -99.90      -99.90      -99.90      -99.90      -99.90      -99.90      -99.90      -99.90      -99.90    
  18   -99.90      -99.90      -99.90      -99.90      -99.90      -99.90      -99.90      -99.90      -99.90      -99.90    
       -99.90      -99.90      -99.90      -99.90      -99.90      -99.90      -99.90      -99.90      -99.90      -99.90    
       -99.90      -99.90      -99.90      -99.90      -99.90      -99.90      -99.90      -99.90      -99.90      -99.90    
       -99.90      -99.90      -99.90      -99.90      -99.90      -99.90      -99.90      -99.90      -99.90      -99.90    
  19   -99.90      -99.90      -99.90      -99.90      -99.90      -99.90      -99.90      -99.90      -99.90      -99.90    
       -99.90      -99.90      -99.90      -99.90      -99.90      -99.90      -99.90      -99.90      -99.90      -99.90    
       -99.90      -99.90      -99.90      -99.90      -99.90      -99.90      -99.90      -99.90      -99.90      -99.90    
       -99.90      -99.90      -99.90      -99.90      -99.90      -99.90      -99.90      -99.90      -99.90      -99.90    
  20   -99.90      -99.90      -99.90      -99.90      -99.90      -99.90      -99.90      -99.90      -99.90      -99.90    
       -99.90      -99.90      -99.90      -99.90      -99.90      -99.90      -99.90      -99.90      -99.90      -99.90    
       -99.90      -99.90      -99.90      -99.90      -99.90      -99.90      -99.90      -99.90      -99.90      -99.90    
       -99.90      -99.90      -99.90      -99.90      -99.90      -99.90      -99.90      -99.90      -99.90      -99.90    
  21   -99.90      -99.90      -99.90      -99.90      -99.90      -99.90      -99.90      -99.90      -99.90      -99.90    
       -99.90      -99.90      -99.90      -99.90      -99.90      -99.90      -99.90      -99.90      -99.90      -99.90    
       -99.90      -99.90      -99.90      -99.90      -99.90      -99.90      -99.90      -99.90      -99.90      -99.90    
       -99.90      -99.90      -99.90      -99.90      -99.90      -99.90      -99.90      -99.90      -99.90      -99.90    
  22   -99.90      -99.90      -99.90      -99.90      -99.90      -99.90      -99.90      -99.90      -99.90      -99.90    
       -99.90      -99.90      -99.90      -99.90      -99.90      -99.90      -99.90      -99.90      -99.90      -99.90    
       -99.90      -99.90      -99.90      -99.90      -99.90      -99.90      -99.90      -99.90      -99.90      -99.90    
       -99.90      -99.90      -99.90      -99.90      -99.90      -99.90      -99.90      -99.90      -99.90      -99.90    
  23   -99.90      -99.90      -99.90      -99.90      -99.90      -99.90      -99.90      -99.90      -99.90      -99.90    
       -99.90      -99.90      -99.90      -99.90      -99.90      -99.90      -99.90      -99.90      -99.90      -99.90    
       -99.90      -99.90      -99.90      -99.90      -99.90      -99.90      -99.90      -99.90      -99.90      -99.90    
       -99.90      -99.90      -99.90      -99.90      -99.90      -99.90      -99.90      -99.90      -99.90      -99.90    
  24   -99.90      -99.90      -99.90      -99.90      -99.90      -99.90      -99.90      -99.90      -99.90      -99.90    
       -99.90      -99.90      -99.90      -99.90      -99.90      -99.90      -99.90      -99.90      -99.90      -99.90    
       -99.90      -99.90      -99.90      -99.90      -99.90      -99.90      -99.90      -99.90      -99.90      -99.90    
       -99.90      -99.90      -99.90      -99.90      -99.90      -99.90      -99.90      -99.90      -99.90      -99.90    
  25   -99.90      -99.90      -99.90      -99.90      -99.90      -99.90      -99.90      -99.90      -99.90      -99.90    
       -99.90      -99.90      -99.90      -99.90      -99.90      -99.90      -99.90      -99.90      -99.90      -99.90    
       -99.90      -99.90      -99.90      -99.90      -99.90      -99.90      -99.90      -99.90      -99.90      -99.90    
       -99.90      -99.90      -99.90      -99.90      -99.90      -99.90      -99.90      -99.90      -99.90      -99.90    
  26   -99.90      -99.90      -99.90      -99.90      -99.90      -99.90      -99.90      -99.90      -99.90      -99.90    
       -99.90      -99.90      -99.90      -99.90      -99.90      -99.90      -99.90      -99.90      -99.90      -99.90    
       -99.90      -99.90      -99.90      -99.90      -99.90      -99.90      -99.90      -99.90      -99.90      -99.90    
       -99.90      -99.90      -99.90      -99.90      -99.90      -99.90      -99.90      -99.90      -99.90      -99.90    
  27   -99.90      -99.90      -99.90      -99.90      -99.90      -99.90      -99.90      -99.90      -99.90      -99.90    
       -99.90      -99.90      -99.90      -99.90      -99.90      -99.90      -99.90      -99.90      -99.90      -99.90    
       -99.90      -99.90      -99.90      -99.90      -99.90      -99.90      -99.90      -99.90      -99.90      -99.90    
       -99.90      -99.90      -99.90      -99.90      -99.90      -99.90      -99.90      -99.90      -99.90      -99.90    
  28   -99.90      -99.90      -99.90      -99.90      -99.90      -99.90      -99.90      -99.90      -99.90      -99.90    
       -99.90      -99.90      -99.90      -99.90      -99.90      -99.90      -99.90      -99.90      -99.90      -99.90    
       -99.90      -99.90      -99.90      -99.90      -99.90      -99.90      -99.90      -99.90      -99.90      -99.90    
       -99.90      -99.90      -99.90      -99.90      -99.90      -99.90      -99.90      -99.90      -99.90      -99.90    
  29   -99.90      -99.90      -99.90      -99.90      -99.90      -99.90      -99.90      -99.90      -99.90      -99.90    
       -99.90      -99.90      -99.90      -99.90      -99.90      -99.90      -99.90      -99.90      -99.90      -99.90    
       -99.90      -99.90      -99.90      -99.90      -99.90      -99.90      -99.90      -99.90      -99.90      -99.90    
       -99.90      -99.90      -99.90      -99.90      -99.90      -99.90      -99.90      -99.90      -99.90      -99.90    
  30   -99.90      -99.90      -99.90      -99.90      -99.90      -99.90      -99.90      -99.90      -99.90      -99.90    
       -99.90      -99.90      -99.90      -99.90      -99.90      -99.90      -99.90      -99.90      -99.90      -99.90    
       -99.90      -99.90      -99.90      -99.90      -99.90      -99.90      -99.90      -99.90      -99.90      -99.90    
       -99.90      -99.90      -99.90      -99.90      -99.90      -99.90      -99.90      -99.90      -99.90      -99.90    
  31   -99.90      -99.90      -99.90      -99.90      -99.90      -99.90      -99.90      -99.90      -99.90      -99.90    
       -99.90      -99.90      -99.90      -99.90      -99.90      -99.90      -99.90      -99.90      -99.90      -99.90    
       -99.90      -99.90      -99.90      -99.90      -99.90      -99.90      -99.90      -99.90      -99.90      -99.90    
       -99.90      -99.90      -99.90      -99.90      -99.90      -99.90      -99.90      -99.90      -99.90      -99.90    
  32   -99.90      -99.90      -99.90      -99.90      -99.90      -99.90      -99.90      -99.90      -99.90      -99.90    
       -99.90      -99.90      -99.90      -99.90      -99.90      -99.90      -99.90      -99.90      -99.90      -99.90    
       -99.90      -99.90      -99.90      -99.90      -99.90      -99.90      -99.90      -99.90      -99.90      -99.90    
       -99.90      -99.90      -99.90      -99.90      -99.90      -99.90      -99.90      -99.90      -99.90      -99.90    
  33   -99.90      -99.90      -99.90      -99.90      -99.90      -99.90      -99.90      -99.90      -99.90      -99.90    
       -99.90      -99.90      -99.90      -99.90      -99.90      -99.90      -99.90      -99.90      -99.90      -99.90    
       -99.90      -99.90      -99.90      -99.90      -99.90      -99.90      -99.90      -99.90      -99.90      -99.90    
       -99.90      -99.90      -99.90      -99.90      -99.90      -99.90      -99.90      -99.90      -99.90      -99.90    
  34   -99.90      -99.90      -99.90      -99.90      -99.90      -99.90      -99.90      -99.90      -99.90      -99.90    
       -99.90      -99.90      -99.90      -99.90      -99.90      -99.90      -99.90      -99.90      -99.90      -99.90    
       -99.90      -99.90      -99.90      -99.90      -99.90      -99.90      -99.90      -99.90      -99.90      -99.90    
       -99.90      -99.90      -99.90      -99.90      -99.90      -99.90      -99.90      -99.90      -99.90      -99.90    
  35   -99.90      -99.90      -99.90      -99.90      -99.90      -99.90      -99.90      -99.90      -99.90      -99.90    
       -99.90      -99.90      -99.90      -99.90      -99.90      -99.90      -99.90      -99.90      -99.90      -99.90    
       -99.90      -99.90      -99.90      -99.90      -99.90      -99.90      -99.90      -99.90      -99.90      -99.90    
       -99.90      -99.90      -99.90      -99.90      -99.90      -99.90      -99.90      -99.90      -99.90      -99.90    
  36   -99.90      -99.90      -99.90      -99.90      -99.90      -99.90      -99.90      -99.90      -99.90      -99.90    
       -99.90      -99.90      -99.90      -99.90      -99.90      -99.90      -99.90      -99.90      -99.90      -99.90    
       -99.90      -99.90      -99.90      -99.90      -99.90      -99.90      -99.90      -99.90      -99.90      -99.90    
       -99.90      -99.90      -99.90      -99.90      -99.90      -99.90      -99.90      -99.90      -99.90      -99.90    
  37   -99.90      -99.90      -99.90      -99.90      -99.90      -99.90      -99.90      -99.90      -99.90      -99.90    
       -99.90      -99.90      -99.90      -99.90      -99.90      -99.90      -99.90      -99.90      -99.90      -99.90    
       -99.90      -99.90      -99.90      -99.90      -99.90      -99.90      -99.90      -99.90      -99.90      -99.90    
       -99.90      -99.90      -99.90      -99.90      -99.90      -99.90      -99.90      -99.90      -99.90      -99.90    
  38   -99.90      -99.90      -99.90      -99.90      -99.90      -99.90      -99.90      -99.90      -99.90      -99.90    
       -99.90      -99.90      -99.90      -99.90      -99.90      -99.90      -99.90      -99.90      -99.90      -99.90    
       -99.90      -99.90      -99.90      -99.90      -99.90      -99.90      -99.90      -99.90      -99.90      -99.90    
       -99.90      -99.90      -99.90      -99.90      -99.90      -99.90      -99.90      -99.90      -99.90      -99.90    
  39   -99.90      -99.90      -99.90      -99.90      -99.90      -99.90      -99.90      -99.90      -99.90      -99.90    
       -99.90      -99.90      -99.90      -99.90      -99.90      -99.90      -99.90      -99.90      -99.90      -99.90    
       -99.90      -99.90      -99.90      -99.90      -99.90      -99.90      -99.90      -99.90      -99.90      -99.90    
       -99.90      -99.90      -99.90      -99.90      -99.90      -99.90      -99.90      -99.90      -99.90      -99.90    
  40   -99.90      -99.90      -99.90      -99.90      -99.90      -99.90      -99.90      -99.90      -99.90      -99.90    
       -99.90      -99.90      -99.90      -99.90      -99.90      -99.90      -99.90      -99.90      -99.90      -99.90    
       -99.90      -99.90      -99.90      -99.90      -99.90      -99.90      -99.90      -99.90      -99.90      -99.90    
       -99.90      -99.90      -99.90      -99.90      -99.90      -99.90      -99.90      -99.90      -99.90      -99.90    
1
              HEAD IN LAYER   7 AT END OF TIME STEP   2 IN STRESS PERIOD    2
  ---------------------------------------------------------------------------

            1           2           3           4           5           6           7           8           9          10
           11          12          13          14          15          16          17          18          19          20
           21          22          23          24          25          26          27          28          29          30
           31          32          33          34          35          36          37          38          39          40
 ........................................................................................................................
   1    47.02       45.46       39.86       36.58      -99.90      -99.90      -99.90      -99.90      -99.90      -99.90    
       -99.90      -99.90      -99.90      -99.90      -99.90      -99.90      -99.90      -99.90      -99.90      -99.90    
       -99.90      -99.90      -99.90      -99.90      -99.90      -99.90      -99.90      -99.90      -99.90      -99.90    
       -99.90      -99.90      -99.90      -99.90      -99.90      -99.90      -99.90      -99.90      -99.90      -99.90    
   2    45.46       44.09       38.87       35.90      -99.90      -99.90      -99.90      -99.90      -99.90      -99.90    
       -99.90      -99.90      -99.90      -99.90      -99.90      -99.90      -99.90      -99.90      -99.90      -99.90    
       -99.90      -99.90      -99.90      -99.90      -99.90      -99.90      -99.90      -99.90      -99.90      -99.90    
       -99.90      -99.90      -99.90      -99.90      -99.90      -99.90      -99.90      -99.90      -99.90      -99.90    
   3    39.86       38.87       36.75      -99.90      -99.90      -99.90      -99.90      -99.90      -99.90      -99.90    
       -99.90      -99.90      -99.90      -99.90      -99.90      -99.90      -99.90      -99.90      -99.90      -99.90    
       -99.90      -99.90      -99.90      -99.90      -99.90      -99.90      -99.90      -99.90      -99.90      -99.90    
       -99.90      -99.90      -99.90      -99.90      -99.90      -99.90      -99.90      -99.90      -99.90      -99.90    
   4    36.58       35.90      -99.90      -99.90      -99.90      -99.90      -99.90      -99.90      -99.90      -99.90    
       -99.90      -99.90      -99.90      -99.90      -99.90      -99.90      -99.90      -99.90      -99.90      -99.90    
       -99.90      -99.90      -99.90      -99.90      -99.90      -99.90      -99.90      -99.90      -99.90      -99.90    
       -99.90      -99.90      -99.90      -99.90      -99.90      -99.90      -99.90      -99.90      -99.90      -99.90    
   5   -99.90      -99.90      -99.90      -99.90      -99.90      -99.90      -99.90      -99.90      -99.90      -99.90    
       -99.90      -99.90      -99.90      -99.90      -99.90      -99.90      -99.90      -99.90      -99.90      -99.90    
       -99.90      -99.90      -99.90      -99.90      -99.90      -99.90      -99.90      -99.90      -99.90      -99.90    
       -99.90      -99.90      -99.90      -99.90      -99.90      -99.90      -99.90      -99.90      -99.90      -99.90    
   6   -99.90      -99.90      -99.90      -99.90      -99.90      -99.90      -99.90      -99.90      -99.90      -99.90    
       -99.90      -99.90      -99.90      -99.90      -99.90      -99.90      -99.90      -99.90      -99.90      -99.90    
       -99.90      -99.90      -99.90      -99.90      -99.90      -99.90      -99.90      -99.90      -99.90      -99.90    
       -99.90      -99.90      -99.90      -99.90      -99.90      -99.90      -99.90      -99.90      -99.90      -99.90    
   7   -99.90      -99.90      -99.90      -99.90      -99.90      -99.90      -99.90      -99.90      -99.90      -99.90    
       -99.90      -99.90      -99.90      -99.90      -99.90      -99.90      -99.90      -99.90      -99.90      -99.90    
       -99.90      -99.90      -99.90      -99.90      -99.90      -99.90      -99.90      -99.90      -99.90      -99.90    
       -99.90      -99.90      -99.90      -99.90      -99.90      -99.90      -99.90      -99.90      -99.90      -99.90    
   8   -99.90      -99.90      -99.90      -99.90      -99.90      -99.90      -99.90      -99.90      -99.90      -99.90    
       -99.90      -99.90      -99.90      -99.90      -99.90      -99.90      -99.90      -99.90      -99.90      -99.90    
       -99.90      -99.90      -99.90      -99.90      -99.90      -99.90      -99.90      -99.90      -99.90      -99.90    
       -99.90      -99.90      -99.90      -99.90      -99.90      -99.90      -99.90      -99.90      -99.90      -99.90    
   9   -99.90      -99.90      -99.90      -99.90      -99.90      -99.90      -99.90      -99.90      -99.90      -99.90    
       -99.90      -99.90      -99.90      -99.90      -99.90      -99.90      -99.90      -99.90      -99.90      -99.90    
       -99.90      -99.90      -99.90      -99.90      -99.90      -99.90      -99.90      -99.90      -99.90      -99.90    
       -99.90      -99.90      -99.90      -99.90      -99.90      -99.90      -99.90      -99.90      -99.90      -99.90    
  10   -99.90      -99.90      -99.90      -99.90      -99.90      -99.90      -99.90      -99.90      -99.90      -99.90    
       -99.90      -99.90      -99.90      -99.90      -99.90      -99.90      -99.90      -99.90      -99.90      -99.90    
       -99.90      -99.90      -99.90      -99.90      -99.90      -99.90      -99.90      -99.90      -99.90      -99.90    
       -99.90      -99.90      -99.90      -99.90      -99.90      -99.90      -99.90      -99.90      -99.90      -99.90    
  11   -99.90      -99.90      -99.90      -99.90      -99.90      -99.90      -99.90      -99.90      -99.90      -99.90    
       -99.90      -99.90      -99.90      -99.90      -99.90      -99.90      -99.90      -99.90      -99.90      -99.90    
       -99.90      -99.90      -99.90      -99.90      -99.90      -99.90      -99.90      -99.90      -99.90      -99.90    
       -99.90      -99.90      -99.90      -99.90      -99.90      -99.90      -99.90      -99.90      -99.90      -99.90    
  12   -99.90      -99.90      -99.90      -99.90      -99.90      -99.90      -99.90      -99.90      -99.90      -99.90    
       -99.90      -99.90      -99.90      -99.90      -99.90      -99.90      -99.90      -99.90      -99.90      -99.90    
       -99.90      -99.90      -99.90      -99.90      -99.90      -99.90      -99.90      -99.90      -99.90      -99.90    
       -99.90      -99.90      -99.90      -99.90      -99.90      -99.90      -99.90      -99.90      -99.90      -99.90    
  13   -99.90      -99.90      -99.90      -99.90      -99.90      -99.90      -99.90      -99.90      -99.90      -99.90    
       -99.90      -99.90      -99.90      -99.90      -99.90      -99.90      -99.90      -99.90      -99.90      -99.90    
       -99.90      -99.90      -99.90      -99.90      -99.90      -99.90      -99.90      -99.90      -99.90      -99.90    
       -99.90      -99.90      -99.90      -99.90      -99.90      -99.90      -99.90      -99.90      -99.90      -99.90    
  14   -99.90      -99.90      -99.90      -99.90      -99.90      -99.90      -99.90      -99.90      -99.90      -99.90    
       -99.90      -99.90      -99.90      -99.90      -99.90      -99.90      -99.90      -99.90      -99.90      -99.90    
       -99.90      -99.90      -99.90      -99.90      -99.90      -99.90      -99.90      -99.90      -99.90      -99.90    
       -99.90      -99.90      -99.90      -99.90      -99.90      -99.90      -99.90      -99.90      -99.90      -99.90    
  15   -99.90      -99.90      -99.90      -99.90      -99.90      -99.90      -99.90      -99.90      -99.90      -99.90    
       -99.90      -99.90      -99.90      -99.90      -99.90      -99.90      -99.90      -99.90      -99.90      -99.90    
       -99.90      -99.90      -99.90      -99.90      -99.90      -99.90      -99.90      -99.90      -99.90      -99.90    
       -99.90      -99.90      -99.90      -99.90      -99.90      -99.90      -99.90      -99.90      -99.90      -99.90    
  16   -99.90      -99.90      -99.90      -99.90      -99.90      -99.90      -99.90      -99.90      -99.90      -99.90    
       -99.90      -99.90      -99.90      -99.90      -99.90      -99.90      -99.90      -99.90      -99.90      -99.90    
       -99.90      -99.90      -99.90      -99.90      -99.90      -99.90      -99.90      -99.90      -99.90      -99.90    
       -99.90      -99.90      -99.90      -99.90      -99.90      -99.90      -99.90      -99.90      -99.90      -99.90    
  17   -99.90      -99.90      -99.90      -99.90      -99.90      -99.90      -99.90      -99.90      -99.90      -99.90    
       -99.90      -99.90      -99.90      -99.90      -99.90      -99.90      -99.90      -99.90      -99.90      -99.90    
       -99.90      -99.90      -99.90      -99.90      -99.90      -99.90      -99.90      -99.90      -99.90      -99.90    
       -99.90      -99.90      -99.90      -99.90      -99.90      -99.90      -99.90      -99.90      -99.90      -99.90    
  18   -99.90      -99.90      -99.90      -99.90      -99.90      -99.90      -99.90      -99.90      -99.90      -99.90    
       -99.90      -99.90      -99.90      -99.90      -99.90      -99.90      -99.90      -99.90      -99.90      -99.90    
       -99.90      -99.90      -99.90      -99.90      -99.90      -99.90      -99.90      -99.90      -99.90      -99.90    
       -99.90      -99.90      -99.90      -99.90      -99.90      -99.90      -99.90      -99.90      -99.90      -99.90    
  19   -99.90      -99.90      -99.90      -99.90      -99.90      -99.90      -99.90      -99.90      -99.90      -99.90    
       -99.90      -99.90      -99.90      -99.90      -99.90      -99.90      -99.90      -99.90      -99.90      -99.90    
       -99.90      -99.90      -99.90      -99.90      -99.90      -99.90      -99.90      -99.90      -99.90      -99.90    
       -99.90      -99.90      -99.90      -99.90      -99.90      -99.90      -99.90      -99.90      -99.90      -99.90    
  20   -99.90      -99.90      -99.90      -99.90      -99.90      -99.90      -99.90      -99.90      -99.90      -99.90    
       -99.90      -99.90      -99.90      -99.90      -99.90      -99.90      -99.90      -99.90      -99.90      -99.90    
       -99.90      -99.90      -99.90      -99.90      -99.90      -99.90      -99.90      -99.90      -99.90      -99.90    
       -99.90      -99.90      -99.90      -99.90      -99.90      -99.90      -99.90      -99.90      -99.90      -99.90    
  21   -99.90      -99.90      -99.90      -99.90      -99.90      -99.90      -99.90      -99.90      -99.90      -99.90    
       -99.90      -99.90      -99.90      -99.90      -99.90      -99.90      -99.90      -99.90      -99.90      -99.90    
       -99.90      -99.90      -99.90      -99.90      -99.90      -99.90      -99.90      -99.90      -99.90      -99.90    
       -99.90      -99.90      -99.90      -99.90      -99.90      -99.90      -99.90      -99.90      -99.90      -99.90    
  22   -99.90      -99.90      -99.90      -99.90      -99.90      -99.90      -99.90      -99.90      -99.90      -99.90    
       -99.90      -99.90      -99.90      -99.90      -99.90      -99.90      -99.90      -99.90      -99.90      -99.90    
       -99.90      -99.90      -99.90      -99.90      -99.90      -99.90      -99.90      -99.90      -99.90      -99.90    
       -99.90      -99.90      -99.90      -99.90      -99.90      -99.90      -99.90      -99.90      -99.90      -99.90    
  23   -99.90      -99.90      -99.90      -99.90      -99.90      -99.90      -99.90      -99.90      -99.90      -99.90    
       -99.90      -99.90      -99.90      -99.90      -99.90      -99.90      -99.90      -99.90      -99.90      -99.90    
       -99.90      -99.90      -99.90      -99.90      -99.90      -99.90      -99.90      -99.90      -99.90      -99.90    
       -99.90      -99.90      -99.90      -99.90      -99.90      -99.90      -99.90      -99.90      -99.90      -99.90    
  24   -99.90      -99.90      -99.90      -99.90      -99.90      -99.90      -99.90      -99.90      -99.90      -99.90    
       -99.90      -99.90      -99.90      -99.90      -99.90      -99.90      -99.90      -99.90      -99.90      -99.90    
       -99.90      -99.90      -99.90      -99.90      -99.90      -99.90      -99.90      -99.90      -99.90      -99.90    
       -99.90      -99.90      -99.90      -99.90      -99.90      -99.90      -99.90      -99.90      -99.90      -99.90    
  25   -99.90      -99.90      -99.90      -99.90      -99.90      -99.90      -99.90      -99.90      -99.90      -99.90    
       -99.90      -99.90      -99.90      -99.90      -99.90      -99.90      -99.90      -99.90      -99.90      -99.90    
       -99.90      -99.90      -99.90      -99.90      -99.90      -99.90      -99.90      -99.90      -99.90      -99.90    
       -99.90      -99.90      -99.90      -99.90      -99.90      -99.90      -99.90      -99.90      -99.90      -99.90    
  26   -99.90      -99.90      -99.90      -99.90      -99.90      -99.90      -99.90      -99.90      -99.90      -99.90    
       -99.90      -99.90      -99.90      -99.90      -99.90      -99.90      -99.90      -99.90      -99.90      -99.90    
       -99.90      -99.90      -99.90      -99.90      -99.90      -99.90      -99.90      -99.90      -99.90      -99.90    
       -99.90      -99.90      -99.90      -99.90      -99.90      -99.90      -99.90      -99.90      -99.90      -99.90    
  27   -99.90      -99.90      -99.90      -99.90      -99.90      -99.90      -99.90      -99.90      -99.90      -99.90    
       -99.90      -99.90      -99.90      -99.90      -99.90      -99.90      -99.90      -99.90      -99.90      -99.90    
       -99.90      -99.90      -99.90      -99.90      -99.90      -99.90      -99.90      -99.90      -99.90      -99.90    
       -99.90      -99.90      -99.90      -99.90      -99.90      -99.90      -99.90      -99.90      -99.90      -99.90    
  28   -99.90      -99.90      -99.90      -99.90      -99.90      -99.90      -99.90      -99.90      -99.90      -99.90    
       -99.90      -99.90      -99.90      -99.90      -99.90      -99.90      -99.90      -99.90      -99.90      -99.90    
       -99.90      -99.90      -99.90      -99.90      -99.90      -99.90      -99.90      -99.90      -99.90      -99.90    
       -99.90      -99.90      -99.90      -99.90      -99.90      -99.90      -99.90      -99.90      -99.90      -99.90    
  29   -99.90      -99.90      -99.90      -99.90      -99.90      -99.90      -99.90      -99.90      -99.90      -99.90    
       -99.90      -99.90      -99.90      -99.90      -99.90      -99.90      -99.90      -99.90      -99.90      -99.90    
       -99.90      -99.90      -99.90      -99.90      -99.90      -99.90      -99.90      -99.90      -99.90      -99.90    
       -99.90      -99.90      -99.90      -99.90      -99.90      -99.90      -99.90      -99.90      -99.90      -99.90    
  30   -99.90      -99.90      -99.90      -99.90      -99.90      -99.90      -99.90      -99.90      -99.90      -99.90    
       -99.90      -99.90      -99.90      -99.90      -99.90      -99.90      -99.90      -99.90      -99.90      -99.90    
       -99.90      -99.90      -99.90      -99.90      -99.90      -99.90      -99.90      -99.90      -99.90      -99.90    
       -99.90      -99.90      -99.90      -99.90      -99.90      -99.90      -99.90      -99.90      -99.90      -99.90    
  31   -99.90      -99.90      -99.90      -99.90      -99.90      -99.90      -99.90      -99.90      -99.90      -99.90    
       -99.90      -99.90      -99.90      -99.90      -99.90      -99.90      -99.90      -99.90      -99.90      -99.90    
       -99.90      -99.90      -99.90      -99.90      -99.90      -99.90      -99.90      -99.90      -99.90      -99.90    
       -99.90      -99.90      -99.90      -99.90      -99.90      -99.90      -99.90      -99.90      -99.90      -99.90    
  32   -99.90      -99.90      -99.90      -99.90      -99.90      -99.90      -99.90      -99.90      -99.90      -99.90    
       -99.90      -99.90      -99.90      -99.90      -99.90      -99.90      -99.90      -99.90      -99.90      -99.90    
       -99.90      -99.90      -99.90      -99.90      -99.90      -99.90      -99.90      -99.90      -99.90      -99.90    
       -99.90      -99.90      -99.90      -99.90      -99.90      -99.90      -99.90      -99.90      -99.90      -99.90    
  33   -99.90      -99.90      -99.90      -99.90      -99.90      -99.90      -99.90      -99.90      -99.90      -99.90    
       -99.90      -99.90      -99.90      -99.90      -99.90      -99.90      -99.90      -99.90      -99.90      -99.90    
       -99.90      -99.90      -99.90      -99.90      -99.90      -99.90      -99.90      -99.90      -99.90      -99.90    
       -99.90      -99.90      -99.90      -99.90      -99.90      -99.90      -99.90      -99.90      -99.90      -99.90    
  34   -99.90      -99.90      -99.90      -99.90      -99.90      -99.90      -99.90      -99.90      -99.90      -99.90    
       -99.90      -99.90      -99.90      -99.90      -99.90      -99.90      -99.90      -99.90      -99.90      -99.90    
       -99.90      -99.90      -99.90      -99.90      -99.90      -99.90      -99.90      -99.90      -99.90      -99.90    
       -99.90      -99.90      -99.90      -99.90      -99.90      -99.90      -99.90      -99.90      -99.90      -99.90    
  35   -99.90      -99.90      -99.90      -99.90      -99.90      -99.90      -99.90      -99.90      -99.90      -99.90    
       -99.90      -99.90      -99.90      -99.90      -99.90      -99.90      -99.90      -99.90      -99.90      -99.90    
       -99.90      -99.90      -99.90      -99.90      -99.90      -99.90      -99.90      -99.90      -99.90      -99.90    
       -99.90      -99.90      -99.90      -99.90      -99.90      -99.90      -99.90      -99.90      -99.90      -99.90    
  36   -99.90      -99.90      -99.90      -99.90      -99.90      -99.90      -99.90      -99.90      -99.90      -99.90    
       -99.90      -99.90      -99.90      -99.90      -99.90      -99.90      -99.90      -99.90      -99.90      -99.90    
       -99.90      -99.90      -99.90      -99.90      -99.90      -99.90      -99.90      -99.90      -99.90      -99.90    
       -99.90      -99.90      -99.90      -99.90      -99.90      -99.90      -99.90      -99.90      -99.90      -99.90    
  37   -99.90      -99.90      -99.90      -99.90      -99.90      -99.90      -99.90      -99.90      -99.90      -99.90    
       -99.90      -99.90      -99.90      -99.90      -99.90      -99.90      -99.90      -99.90      -99.90      -99.90    
       -99.90      -99.90      -99.90      -99.90      -99.90      -99.90      -99.90      -99.90      -99.90      -99.90    
       -99.90      -99.90      -99.90      -99.90      -99.90      -99.90      -99.90      -99.90      -99.90      -99.90    
  38   -99.90      -99.90      -99.90      -99.90      -99.90      -99.90      -99.90      -99.90      -99.90      -99.90    
       -99.90      -99.90      -99.90      -99.90      -99.90      -99.90      -99.90      -99.90      -99.90      -99.90    
       -99.90      -99.90      -99.90      -99.90      -99.90      -99.90      -99.90      -99.90      -99.90      -99.90    
       -99.90      -99.90      -99.90      -99.90      -99.90      -99.90      -99.90      -99.90      -99.90      -99.90    
  39   -99.90      -99.90      -99.90      -99.90      -99.90      -99.90      -99.90      -99.90      -99.90      -99.90    
       -99.90      -99.90      -99.90      -99.90      -99.90      -99.90      -99.90      -99.90      -99.90      -99.90    
       -99.90      -99.90      -99.90      -99.90      -99.90      -99.90      -99.90      -99.90      -99.90      -99.90    
       -99.90      -99.90      -99.90      -99.90      -99.90      -99.90      -99.90      -99.90      -99.90      -99.90    
  40   -99.90      -99.90      -99.90      -99.90      -99.90      -99.90      -99.90      -99.90      -99.90      -99.90    
       -99.90      -99.90      -99.90      -99.90      -99.90      -99.90      -99.90      -99.90      -99.90      -99.90    
       -99.90      -99.90      -99.90      -99.90      -99.90      -99.90      -99.90      -99.90      -99.90      -99.90    
       -99.90      -99.90      -99.90      -99.90      -99.90      -99.90      -99.90      -99.90      -99.90      -99.90    
1
              HEAD IN LAYER   8 AT END OF TIME STEP   2 IN STRESS PERIOD    2
  ---------------------------------------------------------------------------

            1           2           3           4           5           6           7           8           9          10
           11          12          13          14          15          16          17          18          19          20
           21          22          23          24          25          26          27          28          29          30
           31          32          33          34          35          36          37          38          39          40
 ........................................................................................................................
   1    46.29       44.66       39.79       36.56       34.07       32.15       30.59      -99.90      -99.90      -99.90    
       -99.90      -99.90      -99.90      -99.90      -99.90      -99.90      -99.90      -99.90      -99.90      -99.90    
       -99.90      -99.90      -99.90      -99.90      -99.90      -99.90      -99.90      -99.90      -99.90      -99.90    
       -99.90      -99.90      -99.90      -99.90      -99.90      -99.90      -99.90      -99.90      -99.90      -99.90    
   2    44.66       43.23       38.80       35.88       33.63       31.86      -99.90      -99.90      -99.90      -99.90    
       -99.90      -99.90      -99.90      -99.90      -99.90      -99.90      -99.90      -99.90      -99.90      -99.90    
       -99.90      -99.90      -99.90      -99.90      -99.90      -99.90      -99.90      -99.90      -99.90      -99.90    
       -99.90      -99.90      -99.90      -99.90      -99.90      -99.90      -99.90      -99.90      -99.90      -99.90    
   3    39.79       38.80       36.71       34.61       32.83       31.30      -99.90      -99.90      -99.90      -99.90    
       -99.90      -99.90      -99.90      -99.90      -99.90      -99.90      -99.90      -99.90      -99.90      -99.90    
       -99.90      -99.90      -99.90      -99.90      -99.90      -99.90      -99.90      -99.90      -99.90      -99.90    
       -99.90      -99.90      -99.90      -99.90      -99.90      -99.90      -99.90      -99.90      -99.90      -99.90    
   4    36.56       35.88       34.61       33.21       31.83       30.59      -99.90      -99.90      -99.90      -99.90    
       -99.90      -99.90      -99.90      -99.90      -99.90      -99.90      -99.90      -99.90      -99.90      -99.90    
       -99.90      -99.90      -99.90      -99.90      -99.90      -99.90      -99.90      -99.90      -99.90      -99.90    
       -99.90      -99.90      -99.90      -99.90      -99.90      -99.90      -99.90      -99.90      -99.90      -99.90    
   5    34.07       33.63       32.83       31.83       30.81      -99.90      -99.90      -99.90      -99.90      -99.90    
       -99.90      -99.90      -99.90      -99.90      -99.90      -99.90      -99.90      -99.90      -99.90      -99.90    
       -99.90      -99.90      -99.90      -99.90      -99.90      -99.90      -99.90      -99.90      -99.90      -99.90    
       -99.90      -99.90      -99.90      -99.90      -99.90      -99.90      -99.90      -99.90      -99.90      -99.90    
   6    32.15       31.86       31.30       30.59      -99.90      -99.90      -99.90      -99.90      -99.90      -99.90    
       -99.90      -99.90      -99.90      -99.90      -99.90      -99.90      -99.90      -99.90      -99.90      -99.90    
       -99.90      -99.90      -99.90      -99.90      -99.90      -99.90      -99.90      -99.90      -99.90      -99.90    
       -99.90      -99.90      -99.90      -99.90      -99.90      -99.90      -99.90      -99.90      -99.90      -99.90    
   7    30.59      -99.90      -99.90      -99.90      -99.90      -99.90      -99.90      -99.90      -99.90      -99.90    
       -99.90      -99.90      -99.90      -99.90      -99.90      -99.90      -99.90      -99.90      -99.90      -99.90    
       -99.90      -99.90      -99.90      -99.90      -99.90      -99.90      -99.90      -99.90      -99.90      -99.90    
       -99.90      -99.90      -99.90      -99.90      -99.90      -99.90      -99.90      -99.90      -99.90      -99.90    
   8   -99.90      -99.90      -99.90      -99.90      -99.90      -99.90      -99.90      -99.90      -99.90      -99.90    
       -99.90      -99.90      -99.90      -99.90      -99.90      -99.90      -99.90      -99.90      -99.90      -99.90    
       -99.90      -99.90      -99.90      -99.90      -99.90      -99.90      -99.90      -99.90      -99.90      -99.90    
       -99.90      -99.90      -99.90      -99.90      -99.90      -99.90      -99.90      -99.90      -99.90      -99.90    
   9   -99.90      -99.90      -99.90      -99.90      -99.90      -99.90      -99.90      -99.90      -99.90      -99.90    
       -99.90      -99.90      -99.90      -99.90      -99.90      -99.90      -99.90      -99.90      -99.90      -99.90    
       -99.90      -99.90      -99.90      -99.90      -99.90      -99.90      -99.90      -99.90      -99.90      -99.90    
       -99.90      -99.90      -99.90      -99.90      -99.90      -99.90      -99.90      -99.90      -99.90      -99.90    
  10   -99.90      -99.90      -99.90      -99.90      -99.90      -99.90      -99.90      -99.90      -99.90      -99.90    
       -99.90      -99.90      -99.90      -99.90      -99.90      -99.90      -99.90      -99.90      -99.90      -99.90    
       -99.90      -99.90      -99.90      -99.90      -99.90      -99.90      -99.90      -99.90      -99.90      -99.90    
       -99.90      -99.90      -99.90      -99.90      -99.90      -99.90      -99.90      -99.90      -99.90      -99.90    
  11   -99.90      -99.90      -99.90      -99.90      -99.90      -99.90      -99.90      -99.90      -99.90      -99.90    
       -99.90      -99.90      -99.90      -99.90      -99.90      -99.90      -99.90      -99.90      -99.90      -99.90    
       -99.90      -99.90      -99.90      -99.90      -99.90      -99.90      -99.90      -99.90      -99.90      -99.90    
       -99.90      -99.90      -99.90      -99.90      -99.90      -99.90      -99.90      -99.90      -99.90      -99.90    
  12   -99.90      -99.90      -99.90      -99.90      -99.90      -99.90      -99.90      -99.90      -99.90      -99.90    
       -99.90      -99.90      -99.90      -99.90      -99.90      -99.90      -99.90      -99.90      -99.90      -99.90    
       -99.90      -99.90      -99.90      -99.90      -99.90      -99.90      -99.90      -99.90      -99.90      -99.90    
       -99.90      -99.90      -99.90      -99.90      -99.90      -99.90      -99.90      -99.90      -99.90      -99.90    
  13   -99.90      -99.90      -99.90      -99.90      -99.90      -99.90      -99.90      -99.90      -99.90      -99.90    
       -99.90      -99.90      -99.90      -99.90      -99.90      -99.90      -99.90      -99.90      -99.90      -99.90    
       -99.90      -99.90      -99.90      -99.90      -99.90      -99.90      -99.90      -99.90      -99.90      -99.90    
       -99.90      -99.90      -99.90      -99.90      -99.90      -99.90      -99.90      -99.90      -99.90      -99.90    
  14   -99.90      -99.90      -99.90      -99.90      -99.90      -99.90      -99.90      -99.90      -99.90      -99.90    
       -99.90      -99.90      -99.90      -99.90      -99.90      -99.90      -99.90      -99.90      -99.90      -99.90    
       -99.90      -99.90      -99.90      -99.90      -99.90      -99.90      -99.90      -99.90      -99.90      -99.90    
       -99.90      -99.90      -99.90      -99.90      -99.90      -99.90      -99.90      -99.90      -99.90      -99.90    
  15   -99.90      -99.90      -99.90      -99.90      -99.90      -99.90      -99.90      -99.90      -99.90      -99.90    
       -99.90      -99.90      -99.90      -99.90      -99.90      -99.90      -99.90      -99.90      -99.90      -99.90    
       -99.90      -99.90      -99.90      -99.90      -99.90      -99.90      -99.90      -99.90      -99.90      -99.90    
       -99.90      -99.90      -99.90      -99.90      -99.90      -99.90      -99.90      -99.90      -99.90      -99.90    
  16   -99.90      -99.90      -99.90      -99.90      -99.90      -99.90      -99.90      -99.90      -99.90      -99.90    
       -99.90      -99.90      -99.90      -99.90      -99.90      -99.90      -99.90      -99.90      -99.90      -99.90    
       -99.90      -99.90      -99.90      -99.90      -99.90      -99.90      -99.90      -99.90      -99.90      -99.90    
       -99.90      -99.90      -99.90      -99.90      -99.90      -99.90      -99.90      -99.90      -99.90      -99.90    
  17   -99.90      -99.90      -99.90      -99.90      -99.90      -99.90      -99.90      -99.90      -99.90      -99.90    
       -99.90      -99.90      -99.90      -99.90      -99.90      -99.90      -99.90      -99.90      -99.90      -99.90    
       -99.90      -99.90      -99.90      -99.90      -99.90      -99.90      -99.90      -99.90      -99.90      -99.90    
       -99.90      -99.90      -99.90      -99.90      -99.90      -99.90      -99.90      -99.90      -99.90      -99.90    
  18   -99.90      -99.90      -99.90      -99.90      -99.90      -99.90      -99.90      -99.90      -99.90      -99.90    
       -99.90      -99.90      -99.90      -99.90      -99.90      -99.90      -99.90      -99.90      -99.90      -99.90    
       -99.90      -99.90      -99.90      -99.90      -99.90      -99.90      -99.90      -99.90      -99.90      -99.90    
       -99.90      -99.90      -99.90      -99.90      -99.90      -99.90      -99.90      -99.90      -99.90      -99.90    
  19   -99.90      -99.90      -99.90      -99.90      -99.90      -99.90      -99.90      -99.90      -99.90      -99.90    
       -99.90      -99.90      -99.90      -99.90      -99.90      -99.90      -99.90      -99.90      -99.90      -99.90    
       -99.90      -99.90      -99.90      -99.90      -99.90      -99.90      -99.90      -99.90      -99.90      -99.90    
       -99.90      -99.90      -99.90      -99.90      -99.90      -99.90      -99.90      -99.90      -99.90      -99.90    
  20   -99.90      -99.90      -99.90      -99.90      -99.90      -99.90      -99.90      -99.90      -99.90      -99.90    
       -99.90      -99.90      -99.90      -99.90      -99.90      -99.90      -99.90      -99.90      -99.90      -99.90    
       -99.90      -99.90      -99.90      -99.90      -99.90      -99.90      -99.90      -99.90      -99.90      -99.90    
       -99.90      -99.90      -99.90      -99.90      -99.90      -99.90      -99.90      -99.90      -99.90      -99.90    
  21   -99.90      -99.90      -99.90      -99.90      -99.90      -99.90      -99.90      -99.90      -99.90      -99.90    
       -99.90      -99.90      -99.90      -99.90      -99.90      -99.90      -99.90      -99.90      -99.90      -99.90    
       -99.90      -99.90      -99.90      -99.90      -99.90      -99.90      -99.90      -99.90      -99.90      -99.90    
       -99.90      -99.90      -99.90      -99.90      -99.90      -99.90      -99.90      -99.90      -99.90      -99.90    
  22   -99.90      -99.90      -99.90      -99.90      -99.90      -99.90      -99.90      -99.90      -99.90      -99.90    
       -99.90      -99.90      -99.90      -99.90      -99.90      -99.90      -99.90      -99.90      -99.90      -99.90    
       -99.90      -99.90      -99.90      -99.90      -99.90      -99.90      -99.90      -99.90      -99.90      -99.90    
       -99.90      -99.90      -99.90      -99.90      -99.90      -99.90      -99.90      -99.90      -99.90      -99.90    
  23   -99.90      -99.90      -99.90      -99.90      -99.90      -99.90      -99.90      -99.90      -99.90      -99.90    
       -99.90      -99.90      -99.90      -99.90      -99.90      -99.90      -99.90      -99.90      -99.90      -99.90    
       -99.90      -99.90      -99.90      -99.90      -99.90      -99.90      -99.90      -99.90      -99.90      -99.90    
       -99.90      -99.90      -99.90      -99.90      -99.90      -99.90      -99.90      -99.90      -99.90      -99.90    
  24   -99.90      -99.90      -99.90      -99.90      -99.90      -99.90      -99.90      -99.90      -99.90      -99.90    
       -99.90      -99.90      -99.90      -99.90      -99.90      -99.90      -99.90      -99.90      -99.90      -99.90    
       -99.90      -99.90      -99.90      -99.90      -99.90      -99.90      -99.90      -99.90      -99.90      -99.90    
       -99.90      -99.90      -99.90      -99.90      -99.90      -99.90      -99.90      -99.90      -99.90      -99.90    
  25   -99.90      -99.90      -99.90      -99.90      -99.90      -99.90      -99.90      -99.90      -99.90      -99.90    
       -99.90      -99.90      -99.90      -99.90      -99.90      -99.90      -99.90      -99.90      -99.90      -99.90    
       -99.90      -99.90      -99.90      -99.90      -99.90      -99.90      -99.90      -99.90      -99.90      -99.90    
       -99.90      -99.90      -99.90      -99.90      -99.90      -99.90      -99.90      -99.90      -99.90      -99.90    
  26   -99.90      -99.90      -99.90      -99.90      -99.90      -99.90      -99.90      -99.90      -99.90      -99.90    
       -99.90      -99.90      -99.90      -99.90      -99.90      -99.90      -99.90      -99.90      -99.90      -99.90    
       -99.90      -99.90      -99.90      -99.90      -99.90      -99.90      -99.90      -99.90      -99.90      -99.90    
       -99.90      -99.90      -99.90      -99.90      -99.90      -99.90      -99.90      -99.90      -99.90      -99.90    
  27   -99.90      -99.90      -99.90      -99.90      -99.90      -99.90      -99.90      -99.90      -99.90      -99.90    
       -99.90      -99.90      -99.90      -99.90      -99.90      -99.90      -99.90      -99.90      -99.90      -99.90    
       -99.90      -99.90      -99.90      -99.90      -99.90      -99.90      -99.90      -99.90      -99.90      -99.90    
       -99.90      -99.90      -99.90      -99.90      -99.90      -99.90      -99.90      -99.90      -99.90      -99.90    
  28   -99.90      -99.90      -99.90      -99.90      -99.90      -99.90      -99.90      -99.90      -99.90      -99.90    
       -99.90      -99.90      -99.90      -99.90      -99.90      -99.90      -99.90      -99.90      -99.90      -99.90    
       -99.90      -99.90      -99.90      -99.90      -99.90      -99.90      -99.90      -99.90      -99.90      -99.90    
       -99.90      -99.90      -99.90      -99.90      -99.90      -99.90      -99.90      -99.90      -99.90      -99.90    
  29   -99.90      -99.90      -99.90      -99.90      -99.90      -99.90      -99.90      -99.90      -99.90      -99.90    
       -99.90      -99.90      -99.90      -99.90      -99.90      -99.90      -99.90      -99.90      -99.90      -99.90    
       -99.90      -99.90      -99.90      -99.90      -99.90      -99.90      -99.90      -99.90      -99.90      -99.90    
       -99.90      -99.90      -99.90      -99.90      -99.90      -99.90      -99.90      -99.90      -99.90      -99.90    
  30   -99.90      -99.90      -99.90      -99.90      -99.90      -99.90      -99.90      -99.90      -99.90      -99.90    
       -99.90      -99.90      -99.90      -99.90      -99.90      -99.90      -99.90      -99.90      -99.90      -99.90    
       -99.90      -99.90      -99.90      -99.90      -99.90      -99.90      -99.90      -99.90      -99.90      -99.90    
       -99.90      -99.90      -99.90      -99.90      -99.90      -99.90      -99.90      -99.90      -99.90      -99.90    
  31   -99.90      -99.90      -99.90      -99.90      -99.90      -99.90      -99.90      -99.90      -99.90      -99.90    
       -99.90      -99.90      -99.90      -99.90      -99.90      -99.90      -99.90      -99.90      -99.90      -99.90    
       -99.90      -99.90      -99.90      -99.90      -99.90      -99.90      -99.90      -99.90      -99.90      -99.90    
       -99.90      -99.90      -99.90      -99.90      -99.90      -99.90      -99.90      -99.90      -99.90      -99.90    
  32   -99.90      -99.90      -99.90      -99.90      -99.90      -99.90      -99.90      -99.90      -99.90      -99.90    
       -99.90      -99.90      -99.90      -99.90      -99.90      -99.90      -99.90      -99.90      -99.90      -99.90    
       -99.90      -99.90      -99.90      -99.90      -99.90      -99.90      -99.90      -99.90      -99.90      -99.90    
       -99.90      -99.90      -99.90      -99.90      -99.90      -99.90      -99.90      -99.90      -99.90      -99.90    
  33   -99.90      -99.90      -99.90      -99.90      -99.90      -99.90      -99.90      -99.90      -99.90      -99.90    
       -99.90      -99.90      -99.90      -99.90      -99.90      -99.90      -99.90      -99.90      -99.90      -99.90    
       -99.90      -99.90      -99.90      -99.90      -99.90      -99.90      -99.90      -99.90      -99.90      -99.90    
       -99.90      -99.90      -99.90      -99.90      -99.90      -99.90      -99.90      -99.90      -99.90      -99.90    
  34   -99.90      -99.90      -99.90      -99.90      -99.90      -99.90      -99.90      -99.90      -99.90      -99.90    
       -99.90      -99.90      -99.90      -99.90      -99.90      -99.90      -99.90      -99.90      -99.90      -99.90    
       -99.90      -99.90      -99.90      -99.90      -99.90      -99.90      -99.90      -99.90      -99.90      -99.90    
       -99.90      -99.90      -99.90      -99.90      -99.90      -99.90      -99.90      -99.90      -99.90      -99.90    
  35   -99.90      -99.90      -99.90      -99.90      -99.90      -99.90      -99.90      -99.90      -99.90      -99.90    
       -99.90      -99.90      -99.90      -99.90      -99.90      -99.90      -99.90      -99.90      -99.90      -99.90    
       -99.90      -99.90      -99.90      -99.90      -99.90      -99.90      -99.90      -99.90      -99.90      -99.90    
       -99.90      -99.90      -99.90      -99.90      -99.90      -99.90      -99.90      -99.90      -99.90      -99.90    
  36   -99.90      -99.90      -99.90      -99.90      -99.90      -99.90      -99.90      -99.90      -99.90      -99.90    
       -99.90      -99.90      -99.90      -99.90      -99.90      -99.90      -99.90      -99.90      -99.90      -99.90    
       -99.90      -99.90      -99.90      -99.90      -99.90      -99.90      -99.90      -99.90      -99.90      -99.90    
       -99.90      -99.90      -99.90      -99.90      -99.90      -99.90      -99.90      -99.90      -99.90      -99.90    
  37   -99.90      -99.90      -99.90      -99.90      -99.90      -99.90      -99.90      -99.90      -99.90      -99.90    
       -99.90      -99.90      -99.90      -99.90      -99.90      -99.90      -99.90      -99.90      -99.90      -99.90    
       -99.90      -99.90      -99.90      -99.90      -99.90      -99.90      -99.90      -99.90      -99.90      -99.90    
       -99.90      -99.90      -99.90      -99.90      -99.90      -99.90      -99.90      -99.90      -99.90      -99.90    
  38   -99.90      -99.90      -99.90      -99.90      -99.90      -99.90      -99.90      -99.90      -99.90      -99.90    
       -99.90      -99.90      -99.90      -99.90      -99.90      -99.90      -99.90      -99.90      -99.90      -99.90    
       -99.90      -99.90      -99.90      -99.90      -99.90      -99.90      -99.90      -99.90      -99.90      -99.90    
       -99.90      -99.90      -99.90      -99.90      -99.90      -99.90      -99.90      -99.90      -99.90      -99.90    
  39   -99.90      -99.90      -99.90      -99.90      -99.90      -99.90      -99.90      -99.90      -99.90      -99.90    
       -99.90      -99.90      -99.90      -99.90      -99.90      -99.90      -99.90      -99.90      -99.90      -99.90    
       -99.90      -99.90      -99.90      -99.90      -99.90      -99.90      -99.90      -99.90      -99.90      -99.90    
       -99.90      -99.90      -99.90      -99.90      -99.90      -99.90      -99.90      -99.90      -99.90      -99.90    
  40   -99.90      -99.90      -99.90      -99.90      -99.90      -99.90      -99.90      -99.90      -99.90      -99.90    
       -99.90      -99.90      -99.90      -99.90      -99.90      -99.90      -99.90      -99.90      -99.90      -99.90    
       -99.90      -99.90      -99.90      -99.90      -99.90      -99.90      -99.90      -99.90      -99.90      -99.90    
       -99.90      -99.90      -99.90      -99.90      -99.90      -99.90      -99.90      -99.90      -99.90      -99.90    
1
              HEAD IN LAYER   9 AT END OF TIME STEP   2 IN STRESS PERIOD    2
  ---------------------------------------------------------------------------

            1           2           3           4           5           6           7           8           9          10
           11          12          13          14          15          16          17          18          19          20
           21          22          23          24          25          26          27          28          29          30
           31          32          33          34          35          36          37          38          39          40
 ........................................................................................................................
   1    45.66       44.02       39.71       36.55       34.08       32.16       30.59       29.35       28.38       27.61    
        27.01       26.54       26.18       25.90       25.68       25.51       25.36       25.26       25.20       25.15    
        25.12       25.10      -99.90      -99.90      -99.90      -99.90      -99.90      -99.90      -99.90      -99.90    
       -99.90      -99.90      -99.90      -99.90      -99.90      -99.90      -99.90      -99.90      -99.90      -99.90    
   2    44.02       42.57       38.71       35.87       33.64       31.87       30.38       29.21       28.28       27.54    
        26.95       26.50       26.15       25.88       25.66       25.49       25.35       25.26       25.19       25.15    
        25.12       25.10      -99.90      -99.90      -99.90      -99.90      -99.90      -99.90      -99.90      -99.90    
       -99.90      -99.90      -99.90      -99.90      -99.90      -99.90      -99.90      -99.90      -99.90      -99.90    
   3    39.71       38.71       36.68       34.62       32.84       31.30       29.99       28.94       28.09       27.40    
        26.86       26.43       26.10       25.84       25.63       25.46       25.34       25.25       25.19       25.14    
        25.12       25.10      -99.90      -99.90      -99.90      -99.90      -99.90      -99.90      -99.90      -99.90    
       -99.90      -99.90      -99.90      -99.90      -99.90      -99.90      -99.90      -99.90      -99.90      -99.90    
   4    36.55       35.87       34.62       33.22       31.84       30.59       29.49       28.58       27.83       27.22    
        26.73       26.34       26.03       25.79       25.60       25.43       25.32       25.23       25.18       25.14    
        25.11       25.10      -99.90      -99.90      -99.90      -99.90      -99.90      -99.90      -99.90      -99.90    
       -99.90      -99.90      -99.90      -99.90      -99.90      -99.90      -99.90      -99.90      -99.90      -99.90    
   5    34.08       33.64       32.84       31.84       30.81       29.81       28.93       28.17       27.53       27.00    
        26.57       26.22       25.95       25.73       25.55       25.40       25.29       25.22       25.17       25.13    
        25.11       25.09      -99.90      -99.90      -99.90      -99.90      -99.90      -99.90      -99.90      -99.90    
       -99.90      -99.90      -99.90      -99.90      -99.90      -99.90      -99.90      -99.90      -99.90      -99.90    
   6    32.16       31.87       31.30       30.59       29.81       29.06       28.36       27.74       27.21       26.76    
        26.39       26.09       25.85       25.65       25.48       25.36       25.27       25.20       25.15       25.12    
        25.10       25.09      -99.90      -99.90      -99.90      -99.90      -99.90      -99.90      -99.90      -99.90    
       -99.90      -99.90      -99.90      -99.90      -99.90      -99.90      -99.90      -99.90      -99.90      -99.90    
   7    30.59       30.38       29.99       29.49       28.93       28.36       27.82       27.33       26.90       26.53    
        26.22       25.96       25.75       25.58       25.42       25.32       25.24       25.18       25.14       25.12    
        25.10      -99.90      -99.90      -99.90      -99.90      -99.90      -99.90      -99.90      -99.90      -99.90    
       -99.90      -99.90      -99.90      -99.90      -99.90      -99.90      -99.90      -99.90      -99.90      -99.90    
   8    29.35       29.21       28.94       28.58       28.17       27.74       27.33       26.94       26.60       26.30    
        26.05       25.83       25.65       25.49       25.37       25.28       25.21       25.16       25.13       25.11    
        25.10      -99.90      -99.90      -99.90      -99.90      -99.90      -99.90      -99.90      -99.90      -99.90    
       -99.90      -99.90      -99.90      -99.90      -99.90      -99.90      -99.90      -99.90      -99.90      -99.90    
   9    28.38       28.28       28.09       27.83       27.53       27.21       26.90       26.60       26.33       26.09    
        25.88       25.71       25.55       25.41       25.32       25.24       25.19       25.15       25.12       25.10    
        25.09      -99.90      -99.90      -99.90      -99.90      -99.90      -99.90      -99.90      -99.90      -99.90    
       -99.90      -99.90      -99.90      -99.90      -99.90      -99.90      -99.90      -99.90      -99.90      -99.90    
  10    27.61       27.54       27.40       27.22       27.00       26.76       26.53       26.30       26.09       25.90    
        25.74       25.59       25.45       25.35       25.27       25.21       25.16       25.13       25.11       25.10    
       -99.90      -99.90      -99.90      -99.90      -99.90      -99.90      -99.90      -99.90      -99.90      -99.90    
       -99.90      -99.90      -99.90      -99.90      -99.90      -99.90      -99.90      -99.90      -99.90      -99.90    
  11    27.01       26.95       26.86       26.73       26.57       26.39       26.22       26.05       25.88       25.74    
        25.60       25.47       25.37       25.29       25.23       25.18       25.14       25.12       25.10       25.09    
       -99.90      -99.90      -99.90      -99.90      -99.90      -99.90      -99.90      -99.90      -99.90      -99.90    
       -99.90      -99.90      -99.90      -99.90      -99.90      -99.90      -99.90      -99.90      -99.90      -99.90    
  12    26.54       26.50       26.43       26.34       26.22       26.09       25.96       25.83       25.71       25.59    
        25.47       25.37       25.30       25.24       25.19       25.15       25.13       25.11       25.09      -99.90    
       -99.90      -99.90      -99.90      -99.90      -99.90      -99.90      -99.90      -99.90      -99.90      -99.90    
       -99.90      -99.90      -99.90      -99.90      -99.90      -99.90      -99.90      -99.90      -99.90      -99.90    
  13    26.18       26.15       26.10       26.03       25.95       25.85       25.75       25.65       25.55       25.45    
        25.37       25.30       25.24       25.19       25.16       25.13       25.11       25.10       25.09      -99.90    
       -99.90      -99.90      -99.90      -99.90      -99.90      -99.90      -99.90      -99.90      -99.90      -99.90    
       -99.90      -99.90      -99.90      -99.90      -99.90      -99.90      -99.90      -99.90      -99.90      -99.90    
  14    25.90       25.88       25.84       25.79       25.73       25.65       25.58       25.49       25.41       25.35    
        25.29       25.24       25.19       25.16       25.13       25.11       25.10       25.09      -99.90      -99.90    
       -99.90      -99.90      -99.90      -99.90      -99.90      -99.90      -99.90      -99.90      -99.90      -99.90    
       -99.90      -99.90      -99.90      -99.90      -99.90      -99.90      -99.90      -99.90      -99.90      -99.90    
  15    25.68       25.66       25.63       25.60       25.55       25.48       25.42       25.37       25.32       25.27    
        25.23       25.19       25.16       25.13       25.12       25.10       25.09      -99.90      -99.90      -99.90    
       -99.90      -99.90      -99.90      -99.90      -99.90      -99.90      -99.90      -99.90      -99.90      -99.90    
       -99.90      -99.90      -99.90      -99.90      -99.90      -99.90      -99.90      -99.90      -99.90      -99.90    
  16    25.51       25.49       25.46       25.43       25.40       25.36       25.32       25.28       25.24       25.21    
        25.18       25.15       25.13       25.11       25.10       25.09      -99.90      -99.90      -99.90      -99.90    
       -99.90      -99.90      -99.90      -99.90      -99.90      -99.90      -99.90      -99.90      -99.90      -99.90    
       -99.90      -99.90      -99.90      -99.90      -99.90      -99.90      -99.90      -99.90      -99.90      -99.90    
  17    25.36       25.35       25.34       25.32       25.29       25.27       25.24       25.21       25.19       25.16    
        25.14       25.13       25.11       25.10       25.09      -99.90      -99.90      -99.90      -99.90      -99.90    
       -99.90      -99.90      -99.90      -99.90      -99.90      -99.90      -99.90      -99.90      -99.90      -99.90    
       -99.90      -99.90      -99.90      -99.90      -99.90      -99.90      -99.90      -99.90      -99.90      -99.90    
  18    25.26       25.26       25.25       25.23       25.22       25.20       25.18       25.16       25.15       25.13    
        25.12       25.11       25.10       25.09      -99.90      -99.90      -99.90      -99.90      -99.90      -99.90    
       -99.90      -99.90      -99.90      -99.90      -99.90      -99.90      -99.90      -99.90      -99.90      -99.90    
       -99.90      -99.90      -99.90      -99.90      -99.90      -99.90      -99.90      -99.90      -99.90      -99.90    
  19    25.20       25.19       25.19       25.18       25.17       25.15       25.14       25.13       25.12       25.11    
        25.10       25.09       25.09      -99.90      -99.90      -99.90      -99.90      -99.90      -99.90      -99.90    
       -99.90      -99.90      -99.90      -99.90      -99.90      -99.90      -99.90      -99.90      -99.90      -99.90    
       -99.90      -99.90      -99.90      -99.90      -99.90      -99.90      -99.90      -99.90      -99.90      -99.90    
  20    25.15       25.15       25.14       25.14       25.13       25.12       25.12       25.11       25.10       25.10    
        25.09      -99.90      -99.90      -99.90      -99.90      -99.90      -99.90      -99.90      -99.90      -99.90    
       -99.90      -99.90      -99.90      -99.90      -99.90      -99.90      -99.90      -99.90      -99.90      -99.90    
       -99.90      -99.90      -99.90      -99.90      -99.90      -99.90      -99.90      -99.90      -99.90      -99.90    
  21    25.12       25.12       25.12       25.11       25.11       25.10       25.10       25.10       25.09      -99.90    
       -99.90      -99.90      -99.90      -99.90      -99.90      -99.90      -99.90      -99.90      -99.90      -99.90    
       -99.90      -99.90      -99.90      -99.90      -99.90      -99.90      -99.90      -99.90      -99.90      -99.90    
       -99.90      -99.90      -99.90      -99.90      -99.90      -99.90      -99.90      -99.90      -99.90      -99.90    
  22    25.10       25.10       25.10       25.10       25.09       25.09      -99.90      -99.90      -99.90      -99.90    
       -99.90      -99.90      -99.90      -99.90      -99.90      -99.90      -99.90      -99.90      -99.90      -99.90    
       -99.90      -99.90      -99.90      -99.90      -99.90      -99.90      -99.90      -99.90      -99.90      -99.90    
       -99.90      -99.90      -99.90      -99.90      -99.90      -99.90      -99.90      -99.90      -99.90      -99.90    
  23   -99.90      -99.90      -99.90      -99.90      -99.90      -99.90      -99.90      -99.90      -99.90      -99.90    
       -99.90      -99.90      -99.90      -99.90      -99.90      -99.90      -99.90      -99.90      -99.90      -99.90    
       -99.90      -99.90      -99.90      -99.90      -99.90      -99.90      -99.90      -99.90      -99.90      -99.90    
       -99.90      -99.90      -99.90      -99.90      -99.90      -99.90      -99.90      -99.90      -99.90      -99.90    
  24   -99.90      -99.90      -99.90      -99.90      -99.90      -99.90      -99.90      -99.90      -99.90      -99.90    
       -99.90      -99.90      -99.90      -99.90      -99.90      -99.90      -99.90      -99.90      -99.90      -99.90    
       -99.90      -99.90      -99.90      -99.90      -99.90      -99.90      -99.90      -99.90      -99.90      -99.90    
       -99.90      -99.90      -99.90      -99.90      -99.90      -99.90      -99.90      -99.90      -99.90      -99.90    
  25   -99.90      -99.90      -99.90      -99.90      -99.90      -99.90      -99.90      -99.90      -99.90      -99.90    
       -99.90      -99.90      -99.90      -99.90      -99.90      -99.90      -99.90      -99.90      -99.90      -99.90    
       -99.90      -99.90      -99.90      -99.90      -99.90      -99.90      -99.90      -99.90      -99.90      -99.90    
       -99.90      -99.90      -99.90      -99.90      -99.90      -99.90      -99.90      -99.90      -99.90      -99.90    
  26   -99.90      -99.90      -99.90      -99.90      -99.90      -99.90      -99.90      -99.90      -99.90      -99.90    
       -99.90      -99.90      -99.90      -99.90      -99.90      -99.90      -99.90      -99.90      -99.90      -99.90    
       -99.90      -99.90      -99.90      -99.90      -99.90      -99.90      -99.90      -99.90      -99.90      -99.90    
       -99.90      -99.90      -99.90      -99.90      -99.90      -99.90      -99.90      -99.90      -99.90      -99.90    
  27   -99.90      -99.90      -99.90      -99.90      -99.90      -99.90      -99.90      -99.90      -99.90      -99.90    
       -99.90      -99.90      -99.90      -99.90      -99.90      -99.90      -99.90      -99.90      -99.90      -99.90    
       -99.90      -99.90      -99.90      -99.90      -99.90      -99.90      -99.90      -99.90      -99.90      -99.90    
       -99.90      -99.90      -99.90      -99.90      -99.90      -99.90      -99.90      -99.90      -99.90      -99.90    
  28   -99.90      -99.90      -99.90      -99.90      -99.90      -99.90      -99.90      -99.90      -99.90      -99.90    
       -99.90      -99.90      -99.90      -99.90      -99.90      -99.90      -99.90      -99.90      -99.90      -99.90    
       -99.90      -99.90      -99.90      -99.90      -99.90      -99.90      -99.90      -99.90      -99.90      -99.90    
       -99.90      -99.90      -99.90      -99.90      -99.90      -99.90      -99.90      -99.90      -99.90      -99.90    
  29   -99.90      -99.90      -99.90      -99.90      -99.90      -99.90      -99.90      -99.90      -99.90      -99.90    
       -99.90      -99.90      -99.90      -99.90      -99.90      -99.90      -99.90      -99.90      -99.90      -99.90    
       -99.90      -99.90      -99.90      -99.90      -99.90      -99.90      -99.90      -99.90      -99.90      -99.90    
       -99.90      -99.90      -99.90      -99.90      -99.90      -99.90      -99.90      -99.90      -99.90      -99.90    
  30   -99.90      -99.90      -99.90      -99.90      -99.90      -99.90      -99.90      -99.90      -99.90      -99.90    
       -99.90      -99.90      -99.90      -99.90      -99.90      -99.90      -99.90      -99.90      -99.90      -99.90    
       -99.90      -99.90      -99.90      -99.90      -99.90      -99.90      -99.90      -99.90      -99.90      -99.90    
       -99.90      -99.90      -99.90      -99.90      -99.90      -99.90      -99.90      -99.90      -99.90      -99.90    
  31   -99.90      -99.90      -99.90      -99.90      -99.90      -99.90      -99.90      -99.90      -99.90      -99.90    
       -99.90      -99.90      -99.90      -99.90      -99.90      -99.90      -99.90      -99.90      -99.90      -99.90    
       -99.90      -99.90      -99.90      -99.90      -99.90      -99.90      -99.90      -99.90      -99.90      -99.90    
       -99.90      -99.90      -99.90      -99.90      -99.90      -99.90      -99.90      -99.90      -99.90      -99.90    
  32   -99.90      -99.90      -99.90      -99.90      -99.90      -99.90      -99.90      -99.90      -99.90      -99.90    
       -99.90      -99.90      -99.90      -99.90      -99.90      -99.90      -99.90      -99.90      -99.90      -99.90    
       -99.90      -99.90      -99.90      -99.90      -99.90      -99.90      -99.90      -99.90      -99.90      -99.90    
       -99.90      -99.90      -99.90      -99.90      -99.90      -99.90      -99.90      -99.90      -99.90      -99.90    
  33   -99.90      -99.90      -99.90      -99.90      -99.90      -99.90      -99.90      -99.90      -99.90      -99.90    
       -99.90      -99.90      -99.90      -99.90      -99.90      -99.90      -99.90      -99.90      -99.90      -99.90    
       -99.90      -99.90      -99.90      -99.90      -99.90      -99.90      -99.90      -99.90      -99.90      -99.90    
       -99.90      -99.90      -99.90      -99.90      -99.90      -99.90      -99.90      -99.90      -99.90      -99.90    
  34   -99.90      -99.90      -99.90      -99.90      -99.90      -99.90      -99.90      -99.90      -99.90      -99.90    
       -99.90      -99.90      -99.90      -99.90      -99.90      -99.90      -99.90      -99.90      -99.90      -99.90    
       -99.90      -99.90      -99.90      -99.90      -99.90      -99.90      -99.90      -99.90      -99.90      -99.90    
       -99.90      -99.90      -99.90      -99.90      -99.90      -99.90      -99.90      -99.90      -99.90      -99.90    
  35   -99.90      -99.90      -99.90      -99.90      -99.90      -99.90      -99.90      -99.90      -99.90      -99.90    
       -99.90      -99.90      -99.90      -99.90      -99.90      -99.90      -99.90      -99.90      -99.90      -99.90    
       -99.90      -99.90      -99.90      -99.90      -99.90      -99.90      -99.90      -99.90      -99.90      -99.90    
       -99.90      -99.90      -99.90      -99.90      -99.90      -99.90      -99.90      -99.90      -99.90      -99.90    
  36   -99.90      -99.90      -99.90      -99.90      -99.90      -99.90      -99.90      -99.90      -99.90      -99.90    
       -99.90      -99.90      -99.90      -99.90      -99.90      -99.90      -99.90      -99.90      -99.90      -99.90    
       -99.90      -99.90      -99.90      -99.90      -99.90      -99.90      -99.90      -99.90      -99.90      -99.90    
       -99.90      -99.90      -99.90      -99.90      -99.90      -99.90      -99.90      -99.90      -99.90      -99.90    
  37   -99.90      -99.90      -99.90      -99.90      -99.90      -99.90      -99.90      -99.90      -99.90      -99.90    
       -99.90      -99.90      -99.90      -99.90      -99.90      -99.90      -99.90      -99.90      -99.90      -99.90    
       -99.90      -99.90      -99.90      -99.90      -99.90      -99.90      -99.90      -99.90      -99.90      -99.90    
       -99.90      -99.90      -99.90      -99.90      -99.90      -99.90      -99.90      -99.90      -99.90      -99.90    
  38   -99.90      -99.90      -99.90      -99.90      -99.90      -99.90      -99.90      -99.90      -99.90      -99.90    
       -99.90      -99.90      -99.90      -99.90      -99.90      -99.90      -99.90      -99.90      -99.90      -99.90    
       -99.90      -99.90      -99.90      -99.90      -99.90      -99.90      -99.90      -99.90      -99.90      -99.90    
       -99.90      -99.90      -99.90      -99.90      -99.90      -99.90      -99.90      -99.90      -99.90      -99.90    
  39   -99.90      -99.90      -99.90      -99.90      -99.90      -99.90      -99.90      -99.90      -99.90      -99.90    
       -99.90      -99.90      -99.90      -99.90      -99.90      -99.90      -99.90      -99.90      -99.90      -99.90    
       -99.90      -99.90      -99.90      -99.90      -99.90      -99.90      -99.90      -99.90      -99.90      -99.90    
       -99.90      -99.90      -99.90      -99.90      -99.90      -99.90      -99.90      -99.90      -99.90      -99.90    
  40   -99.90      -99.90      -99.90      -99.90      -99.90      -99.90      -99.90      -99.90      -99.90      -99.90    
       -99.90      -99.90      -99.90      -99.90      -99.90      -99.90      -99.90      -99.90      -99.90      -99.90    
       -99.90      -99.90      -99.90      -99.90      -99.90      -99.90      -99.90      -99.90      -99.90      -99.90    
       -99.90      -99.90      -99.90      -99.90      -99.90      -99.90      -99.90      -99.90      -99.90      -99.90    
1
              HEAD IN LAYER  10 AT END OF TIME STEP   2 IN STRESS PERIOD    2
  ---------------------------------------------------------------------------

            1           2           3           4           5           6           7           8           9          10
           11          12          13          14          15          16          17          18          19          20
           21          22          23          24          25          26          27          28          29          30
           31          32          33          34          35          36          37          38          39          40
 ........................................................................................................................
   1    45.15       43.50       39.62       36.53       34.09       32.17       30.61       29.37       28.39       27.62    
        27.02       26.55       26.18       25.90       25.68       25.51       25.37       25.27       25.20       25.15    
        25.12       25.10       25.10       25.09       25.09       25.08       25.07       25.07       25.06       25.06    
        25.05       25.04       25.04       25.03       25.03       25.02       25.02       25.01       25.01       25.00    
   2    43.50       42.06       38.62       35.86       33.65       31.87       30.40       29.23       28.29       27.55    
        26.97       26.51       26.16       25.88       25.67       25.50       25.36       25.26       25.20       25.15    
        25.12       25.10       25.10       25.09       25.08       25.08       25.07       25.07       25.06       25.05    
        25.05       25.04       25.04       25.03       25.03       25.02       25.02       25.01       25.01       25.00    
   3    39.62       38.62       36.65       34.62       32.85       31.31       30.01       28.96       28.10       27.41    
        26.87       26.44       26.11       25.85       25.64       25.47       25.34       25.25       25.19       25.15    
        25.12       25.10       25.10       25.09       25.08       25.08       25.07       25.07       25.06       25.05    
        25.05       25.04       25.04       25.03       25.03       25.02       25.02       25.01       25.01       25.00    
   4    36.53       35.86       34.62       33.23       31.85       30.60       29.51       28.60       27.84       27.23    
        26.74       26.35       26.04       25.79       25.60       25.44       25.32       25.24       25.18       25.14    
        25.11       25.10       25.09       25.09       25.08       25.08       25.07       25.07       25.06       25.05    
        25.05       25.04       25.04       25.03       25.03       25.02       25.02       25.01       25.01       25.00    
   5    34.09       33.65       32.85       31.85       30.82       29.83       28.95       28.19       27.54       27.01    
        26.58       26.23       25.95       25.73       25.55       25.40       25.30       25.22       25.17       25.13    
        25.11       25.10       25.09       25.09       25.08       25.08       25.07       25.06       25.06       25.05    
        25.05       25.04       25.04       25.03       25.03       25.02       25.02       25.01       25.01       25.00    
   6    32.17       31.87       31.31       30.60       29.83       29.08       28.38       27.76       27.22       26.77    
        26.40       26.10       25.86       25.66       25.49       25.36       25.27       25.20       25.16       25.13    
        25.11       25.09       25.09       25.09       25.08       25.07       25.07       25.06       25.06       25.05    
        25.05       25.04       25.04       25.03       25.03       25.02       25.02       25.01       25.01       25.00    
   7    30.61       30.40       30.01       29.51       28.95       28.38       27.84       27.34       26.91       26.54    
        26.23       25.97       25.76       25.58       25.43       25.32       25.24       25.19       25.14       25.12    
        25.10       25.10       25.09       25.08       25.08       25.07       25.07       25.06       25.06       25.05    
        25.05       25.04       25.04       25.03       25.03       25.02       25.02       25.01       25.01       25.00    
   8    29.37       29.23       28.96       28.60       28.19       27.76       27.34       26.96       26.61       26.31    
        26.05       25.84       25.66       25.49       25.37       25.28       25.22       25.17       25.13       25.11    
        25.10       25.09       25.09       25.08       25.08       25.07       25.07       25.06       25.06       25.05    
        25.05       25.04       25.04       25.03       25.03       25.02       25.02       25.01       25.01       25.00    
   9    28.39       28.29       28.10       27.84       27.54       27.22       26.91       26.61       26.34       26.10    
        25.89       25.71       25.56       25.42       25.32       25.25       25.19       25.15       25.12       25.10    
        25.09       25.09       25.09       25.08       25.08       25.07       25.07       25.06       25.06       25.05    
        25.05       25.04       25.04       25.03       25.02       25.02       25.01       25.01       25.00       25.00    
  10    27.62       27.55       27.41       27.23       27.01       26.77       26.54       26.31       26.10       25.91    
        25.74       25.59       25.46       25.35       25.27       25.21       25.17       25.13       25.11       25.10    
        25.09       25.09       25.08       25.08       25.07       25.07       25.06       25.06       25.05       25.05    
        25.04       25.04       25.03       25.03       25.02       25.02       25.01       25.01       25.00       25.00    
  11    27.02       26.97       26.87       26.74       26.58       26.40       26.23       26.05       25.89       25.74    
        25.60       25.47       25.37       25.29       25.23       25.18       25.14       25.12       25.10       25.09    
        25.09       25.09       25.08       25.08       25.07       25.07       25.06       25.06       25.05       25.05    
        25.04       25.04       25.03       25.03       25.02       25.02       25.01       25.01       25.00       25.00    
  12    26.55       26.51       26.44       26.35       26.23       26.10       25.97       25.84       25.71       25.59    
        25.47       25.38       25.30       25.24       25.19       25.15       25.13       25.11       25.10       25.09    
        25.09       25.08       25.08       25.07       25.07       25.07       25.06       25.06       25.05       25.05    
        25.04       25.04       25.03       25.03       25.02       25.02       25.01       25.01       25.00       25.00    
  13    26.18       26.16       26.11       26.04       25.95       25.86       25.76       25.66       25.56       25.46    
        25.37       25.30       25.24       25.20       25.16       25.13       25.11       25.10       25.09       25.09    
        25.09       25.08       25.08       25.07       25.07       25.06       25.06       25.05       25.05       25.05    
        25.04       25.04       25.03       25.03       25.02       25.02       25.01       25.01       25.00       25.00    
  14    25.90       25.88       25.85       25.79       25.73       25.66       25.58       25.49       25.42       25.35    
        25.29       25.24       25.20       25.16       25.14       25.12       25.10       25.09       25.09       25.09    
        25.08       25.08       25.07       25.07       25.07       25.06       25.06       25.05       25.05       25.04    
        25.04       25.04       25.03       25.03       25.02       25.02       25.01       25.01       25.00       25.00    
  15    25.68       25.67       25.64       25.60       25.55       25.49       25.43       25.37       25.32       25.27    
        25.23       25.19       25.16       25.14       25.12       25.10       25.09       25.09       25.09       25.08    
        25.08       25.08       25.07       25.07       25.06       25.06       25.06       25.05       25.05       25.04    
        25.04       25.03       25.03       25.03       25.02       25.02       25.01       25.01       25.00       25.00    
  16    25.51       25.50       25.47       25.44       25.40       25.36       25.32       25.28       25.25       25.21    
        25.18       25.15       25.13       25.12       25.10       25.10       25.09       25.09       25.09       25.08    
        25.08       25.07       25.07       25.07       25.06       25.06       25.05       25.05       25.05       25.04    
        25.04       25.03       25.03       25.02       25.02       25.02       25.01       25.01       25.00       25.00    
  17    25.37       25.36       25.34       25.32       25.30       25.27       25.24       25.22       25.19       25.17    
        25.14       25.13       25.11       25.10       25.09       25.09       25.09       25.09       25.08       25.08    
        25.07       25.07       25.07       25.06       25.06       25.06       25.05       25.05       25.04       25.04    
        25.04       25.03       25.03       25.02       25.02       25.02       25.01       25.01       25.00       25.00    
  18    25.27       25.26       25.25       25.24       25.22       25.20       25.19       25.17       25.15       25.13    
        25.12       25.11       25.10       25.09       25.09       25.09       25.09       25.08       25.08       25.08    
        25.07       25.07       25.06       25.06       25.06       25.05       25.05       25.05       25.04       25.04    
        25.03       25.03       25.03       25.02       25.02       25.02       25.01       25.01       25.00       25.00    
  19    25.20       25.20       25.19       25.18       25.17       25.16       25.14       25.13       25.12       25.11    
        25.10       25.10       25.09       25.09       25.09       25.09       25.08       25.08       25.08       25.07    
        25.07       25.07       25.06       25.06       25.05       25.05       25.05       25.04       25.04       25.04    
        25.03       25.03       25.03       25.02       25.02       25.01       25.01       25.01       25.00       25.00    
  20    25.15       25.15       25.15       25.14       25.13       25.13       25.12       25.11       25.10       25.10    
        25.09       25.09       25.09       25.09       25.08       25.08       25.08       25.08       25.07       25.07    
        25.07       25.06       25.06       25.06       25.05       25.05       25.05       25.04       25.04       25.04    
        25.03       25.03       25.02       25.02       25.02       25.01       25.01       25.01       25.00       25.00    
  21    25.12       25.12       25.12       25.11       25.11       25.11       25.10       25.10       25.09       25.09    
        25.09       25.09       25.09       25.08       25.08       25.08       25.07       25.07       25.07       25.07    
        25.06       25.06       25.06       25.05       25.05       25.05       25.04       25.04       25.04       25.03    
        25.03       25.03       25.02       25.02       25.02       25.01       25.01       25.01       25.00       25.00    
  22    25.10       25.10       25.10       25.10       25.10       25.09       25.10       25.09       25.09       25.09    
        25.09       25.08       25.08       25.08       25.08       25.07       25.07       25.07       25.07       25.06    
        25.06       25.06       25.05       25.05       25.05       25.04       25.04       25.04       25.04       25.03    
        25.03       25.03       25.02       25.02       25.02       25.01       25.01       25.01       25.00       25.00    
  23    25.10       25.10       25.10       25.09       25.09       25.09       25.09       25.09       25.09       25.08    
        25.08       25.08       25.08       25.07       25.07       25.07       25.07       25.06       25.06       25.06    
        25.06       25.05       25.05       25.05       25.05       25.04       25.04       25.04       25.03       25.03    
        25.03       25.02       25.02       25.02       25.02       25.01       25.01       25.01       25.00       25.00    
  24    25.09       25.09       25.09       25.09       25.09       25.09       25.08       25.08       25.08       25.08    
        25.08       25.07       25.07       25.07       25.07       25.07       25.06       25.06       25.06       25.06    
        25.05       25.05       25.05       25.05       25.04       25.04       25.04       25.03       25.03       25.03    
        25.03       25.02       25.02       25.02       25.01       25.01       25.01       25.01       25.00       25.00    
  25    25.09       25.08       25.08       25.08       25.08       25.08       25.08       25.08       25.08       25.07    
        25.07       25.07       25.07       25.07       25.06       25.06       25.06       25.06       25.05       25.05    
        25.05       25.05       25.05       25.04       25.04       25.04       25.03       25.03       25.03       25.03    
        25.02       25.02       25.02       25.02       25.01       25.01       25.01       25.01       25.00       25.00    
  26    25.08       25.08       25.08       25.08       25.08       25.07       25.07       25.07       25.07       25.07    
        25.07       25.07       25.06       25.06       25.06       25.06       25.06       25.05       25.05       25.05    
        25.05       25.04       25.04       25.04       25.04       25.04       25.03       25.03       25.03       25.03    
        25.02       25.02       25.02       25.02       25.01       25.01       25.01       25.01       25.00       25.00    
  27    25.07       25.07       25.07       25.07       25.07       25.07       25.07       25.07       25.07       25.06    
        25.06       25.06       25.06       25.06       25.06       25.05       25.05       25.05       25.05       25.05    
        25.04       25.04       25.04       25.04       25.03       25.03       25.03       25.03       25.03       25.02    
        25.02       25.02       25.02       25.01       25.01       25.01       25.01       25.00       25.00       25.00    
  28    25.07       25.07       25.07       25.07       25.06       25.06       25.06       25.06       25.06       25.06    
        25.06       25.06       25.05       25.05       25.05       25.05       25.05       25.05       25.04       25.04    
        25.04       25.04       25.04       25.03       25.03       25.03       25.03       25.03       25.02       25.02    
        25.02       25.02       25.02       25.01       25.01       25.01       25.01       25.00       25.00       25.00    
  29    25.06       25.06       25.06       25.06       25.06       25.06       25.06       25.06       25.06       25.05    
        25.05       25.05       25.05       25.05       25.05       25.05       25.04       25.04       25.04       25.04    
        25.04       25.04       25.03       25.03       25.03       25.03       25.03       25.02       25.02       25.02    
        25.02       25.02       25.01       25.01       25.01       25.01       25.01       25.00       25.00       25.00    
  30    25.06       25.05       25.05       25.05       25.05       25.05       25.05       25.05       25.05       25.05    
        25.05       25.05       25.05       25.04       25.04       25.04       25.04       25.04       25.04       25.04    
        25.03       25.03       25.03       25.03       25.03       25.03       25.02       25.02       25.02       25.02    
        25.02       25.01       25.01       25.01       25.01       25.01       25.01       25.00       25.00       25.00    
  31    25.05       25.05       25.05       25.05       25.05       25.05       25.05       25.05       25.05       25.04    
        25.04       25.04       25.04       25.04       25.04       25.04       25.04       25.03       25.03       25.03    
        25.03       25.03       25.03       25.03       25.02       25.02       25.02       25.02       25.02       25.02    
        25.01       25.01       25.01       25.01       25.01       25.01       25.00       25.00       25.00       25.00    
  32    25.04       25.04       25.04       25.04       25.04       25.04       25.04       25.04       25.04       25.04    
        25.04       25.04       25.04       25.04       25.03       25.03       25.03       25.03       25.03       25.03    
        25.03       25.03       25.02       25.02       25.02       25.02       25.02       25.02       25.02       25.01    
        25.01       25.01       25.01       25.01       25.01       25.01       25.00       25.00       25.00       25.00    
  33    25.04       25.04       25.04       25.04       25.04       25.04       25.04       25.04       25.04       25.03    
        25.03       25.03       25.03       25.03       25.03       25.03       25.03       25.03       25.03       25.02    
        25.02       25.02       25.02       25.02       25.02       25.02       25.02       25.02       25.01       25.01    
        25.01       25.01       25.01       25.01       25.01       25.01       25.00       25.00       25.00       25.00    
  34    25.03       25.03       25.03       25.03       25.03       25.03       25.03       25.03       25.03       25.03    
        25.03       25.03       25.03       25.03       25.03       25.02       25.02       25.02       25.02       25.02    
        25.02       25.02       25.02       25.02       25.02       25.02       25.01       25.01       25.01       25.01    
        25.01       25.01       25.01       25.01       25.01       25.00       25.00       25.00       25.00       25.00    
  35    25.03       25.03       25.03       25.03       25.03       25.03       25.03       25.03       25.02       25.02    
        25.02       25.02       25.02       25.02       25.02       25.02       25.02       25.02       25.02       25.02    
        25.02       25.02       25.02       25.01       25.01       25.01       25.01       25.01       25.01       25.01    
        25.01       25.01       25.01       25.01       25.00       25.00       25.00       25.00       25.00       25.00    
  36    25.02       25.02       25.02       25.02       25.02       25.02       25.02       25.02       25.02       25.02    
        25.02       25.02       25.02       25.02       25.02       25.02       25.02       25.02       25.01       25.01    
        25.01       25.01       25.01       25.01       25.01       25.01       25.01       25.01       25.01       25.01    
        25.01       25.01       25.01       25.00       25.00       25.00       25.00       25.00       25.00       25.00    
  37    25.02       25.02       25.02       25.02       25.02       25.02       25.02       25.02       25.01       25.01    
        25.01       25.01       25.01       25.01       25.01       25.01       25.01       25.01       25.01       25.01    
        25.01       25.01       25.01       25.01       25.01       25.01       25.01       25.01       25.01       25.01    
        25.00       25.00       25.00       25.00       25.00       25.00       25.00       25.00       25.00       25.00    
  38    25.01       25.01       25.01       25.01       25.01       25.01       25.01       25.01       25.01       25.01    
        25.01       25.01       25.01       25.01       25.01       25.01       25.01       25.01       25.01       25.01    
        25.01       25.01       25.01       25.01       25.01       25.01       25.00       25.00       25.00       25.00    
        25.00       25.00       25.00       25.00       25.00       25.00       25.00       25.00       25.00       25.00    
  39    25.01       25.01       25.01       25.01       25.01       25.01       25.01       25.01       25.00       25.00    
        25.00       25.00       25.00       25.00       25.00       25.00       25.00       25.00       25.00       25.00    
        25.00       25.00       25.00       25.00       25.00       25.00       25.00       25.00       25.00       25.00    
        25.00       25.00       25.00       25.00       25.00       25.00       25.00       25.00       25.00       25.00    
  40    25.00       25.00       25.00       25.00       25.00       25.00       25.00       25.00       25.00       25.00    
        25.00       25.00       25.00       25.00       25.00       25.00       25.00       25.00       25.00       25.00    
        25.00       25.00       25.00       25.00       25.00       25.00       25.00       25.00       25.00       25.00    
        25.00       25.00       25.00       25.00       25.00       25.00       25.00       25.00       25.00       25.00    
1
              HEAD IN LAYER  11 AT END OF TIME STEP   2 IN STRESS PERIOD    2
  ---------------------------------------------------------------------------

            1           2           3           4           5           6           7           8           9          10
           11          12          13          14          15          16          17          18          19          20
           21          22          23          24          25          26          27          28          29          30
           31          32          33          34          35          36          37          38          39          40
 ........................................................................................................................
   1    44.73       43.10       39.54       36.52       34.10       32.18       30.62       29.38       28.41       27.63    
        27.03       26.56       26.19       25.91       25.69       25.51       25.37       25.27       25.20       25.15    
        25.12       25.11       25.10       25.09       25.09       25.08       25.07       25.07       25.06       25.06    
        25.05       25.04       25.04       25.03       25.03       25.02       25.02       25.01       25.01       25.00    
   2    43.10       41.67       38.54       35.85       33.66       31.88       30.41       29.24       28.30       27.56    
        26.98       26.52       26.17       25.89       25.67       25.50       25.36       25.26       25.20       25.15    
        25.12       25.10       25.10       25.09       25.08       25.08       25.07       25.07       25.06       25.05    
        25.05       25.04       25.04       25.03       25.03       25.02       25.02       25.01       25.01       25.00    
   3    39.54       38.54       36.62       34.63       32.85       31.32       30.03       28.97       28.11       27.43    
        26.88       26.45       26.11       25.85       25.64       25.47       25.34       25.25       25.19       25.15    
        25.12       25.10       25.10       25.09       25.08       25.08       25.07       25.07       25.06       25.05    
        25.05       25.04       25.04       25.03       25.03       25.02       25.02       25.01       25.01       25.00    
   4    36.52       35.85       34.63       33.23       31.86       30.61       29.52       28.61       27.85       27.24    
        26.75       26.35       26.04       25.80       25.60       25.44       25.32       25.24       25.18       25.14    
        25.12       25.10       25.09       25.09       25.08       25.08       25.07       25.07       25.06       25.05    
        25.05       25.04       25.04       25.03       25.03       25.02       25.02       25.01       25.01       25.00    
   5    34.10       33.66       32.85       31.86       30.83       29.84       28.96       28.20       27.55       27.02    
        26.59       26.24       25.96       25.74       25.55       25.41       25.30       25.22       25.17       25.13    
        25.11       25.10       25.09       25.09       25.08       25.08       25.07       25.06       25.06       25.05    
        25.05       25.04       25.04       25.03       25.03       25.02       25.02       25.01       25.01       25.00    
   6    32.18       31.88       31.32       30.61       29.84       29.09       28.39       27.77       27.23       26.78    
        26.41       26.11       25.86       25.66       25.49       25.37       25.27       25.21       25.16       25.13    
        25.11       25.10       25.09       25.09       25.08       25.07       25.07       25.06       25.06       25.05    
        25.05       25.04       25.04       25.03       25.03       25.02       25.02       25.01       25.01       25.00    
   7    30.62       30.41       30.03       29.52       28.96       28.39       27.85       27.35       26.92       26.55    
        26.23       25.98       25.76       25.58       25.43       25.33       25.25       25.19       25.15       25.12    
        25.10       25.10       25.09       25.08       25.08       25.07       25.07       25.06       25.06       25.05    
        25.05       25.04       25.04       25.03       25.03       25.02       25.02       25.01       25.01       25.00    
   8    29.38       29.24       28.97       28.61       28.20       27.77       27.35       26.97       26.62       26.32    
        26.06       25.84       25.66       25.50       25.38       25.29       25.22       25.17       25.13       25.11    
        25.10       25.09       25.09       25.08       25.08       25.07       25.07       25.06       25.06       25.05    
        25.05       25.04       25.04       25.03       25.03       25.02       25.02       25.01       25.01       25.00    
   9    28.41       28.30       28.11       27.85       27.55       27.23       26.92       26.62       26.35       26.11    
        25.90       25.72       25.56       25.42       25.32       25.25       25.19       25.15       25.12       25.10    
        25.09       25.09       25.09       25.08       25.08       25.07       25.07       25.06       25.06       25.05    
        25.05       25.04       25.04       25.03       25.02       25.02       25.01       25.01       25.00       25.00    
  10    27.63       27.56       27.43       27.24       27.02       26.78       26.55       26.32       26.11       25.91    
        25.74       25.59       25.46       25.36       25.27       25.21       25.17       25.14       25.11       25.10    
        25.09       25.09       25.08       25.08       25.07       25.07       25.06       25.06       25.05       25.05    
        25.04       25.04       25.03       25.03       25.02       25.02       25.01       25.01       25.00       25.00    
  11    27.03       26.98       26.88       26.75       26.59       26.41       26.23       26.06       25.90       25.74    
        25.61       25.48       25.38       25.29       25.23       25.18       25.15       25.12       25.10       25.09    
        25.09       25.09       25.08       25.08       25.07       25.07       25.06       25.06       25.05       25.05    
        25.04       25.04       25.03       25.03       25.02       25.02       25.01       25.01       25.00       25.00    
  12    26.56       26.52       26.45       26.35       26.24       26.11       25.98       25.84       25.72       25.59    
        25.48       25.38       25.31       25.24       25.19       25.16       25.13       25.11       25.10       25.09    
        25.09       25.08       25.08       25.07       25.07       25.07       25.06       25.06       25.05       25.05    
        25.04       25.04       25.03       25.03       25.02       25.02       25.01       25.01       25.00       25.00    
  13    26.19       26.17       26.11       26.04       25.96       25.86       25.76       25.66       25.56       25.46    
        25.38       25.31       25.25       25.20       25.16       25.13       25.11       25.10       25.09       25.09    
        25.09       25.08       25.08       25.07       25.07       25.06       25.06       25.05       25.05       25.05    
        25.04       25.04       25.03       25.03       25.02       25.02       25.01       25.01       25.00       25.00    
  14    25.91       25.89       25.85       25.80       25.74       25.66       25.58       25.50       25.42       25.36    
        25.29       25.24       25.20       25.16       25.14       25.12       25.10       25.09       25.09       25.09    
        25.08       25.08       25.07       25.07       25.07       25.06       25.06       25.05       25.05       25.04    
        25.04       25.04       25.03       25.03       25.02       25.02       25.01       25.01       25.00       25.00    
  15    25.69       25.67       25.64       25.60       25.55       25.49       25.43       25.38       25.32       25.27    
        25.23       25.19       25.16       25.14       25.12       25.10       25.10       25.09       25.09       25.08    
        25.08       25.08       25.07       25.07       25.06       25.06       25.06       25.05       25.05       25.04    
        25.04       25.03       25.03       25.03       25.02       25.02       25.01       25.01       25.00       25.00    
  16    25.51       25.50       25.47       25.44       25.41       25.37       25.33       25.29       25.25       25.21    
        25.18       25.16       25.13       25.12       25.10       25.10       25.09       25.09       25.09       25.08    
        25.08       25.07       25.07       25.07       25.06       25.06       25.05       25.05       25.05       25.04    
        25.04       25.03       25.03       25.02       25.02       25.02       25.01       25.01       25.00       25.00    
  17    25.37       25.36       25.34       25.32       25.30       25.27       25.25       25.22       25.19       25.17    
        25.15       25.13       25.11       25.10       25.10       25.09       25.09       25.09       25.08       25.08    
        25.07       25.07       25.07       25.06       25.06       25.06       25.05       25.05       25.04       25.04    
        25.04       25.03       25.03       25.02       25.02       25.02       25.01       25.01       25.00       25.00    
  18    25.27       25.26       25.25       25.24       25.22       25.21       25.19       25.17       25.15       25.14    
        25.12       25.11       25.10       25.09       25.09       25.09       25.09       25.08       25.08       25.08    
        25.07       25.07       25.06       25.06       25.06       25.05       25.05       25.05       25.04       25.04    
        25.03       25.03       25.03       25.02       25.02       25.02       25.01       25.01       25.00       25.00    
  19    25.20       25.20       25.19       25.18       25.17       25.16       25.15       25.13       25.12       25.11    
        25.10       25.10       25.09       25.09       25.09       25.09       25.08       25.08       25.08       25.07    
        25.07       25.07       25.06       25.06       25.05       25.05       25.05       25.04       25.04       25.04    
        25.03       25.03       25.03       25.02       25.02       25.01       25.01       25.01       25.00       25.00    
  20    25.15       25.15       25.15       25.14       25.13       25.13       25.12       25.11       25.10       25.10    
        25.09       25.09       25.09       25.09       25.08       25.08       25.08       25.08       25.07       25.07    
        25.07       25.06       25.06       25.06       25.05       25.05       25.05       25.04       25.04       25.04    
        25.03       25.03       25.02       25.02       25.02       25.01       25.01       25.01       25.00       25.00    
  21    25.12       25.12       25.12       25.12       25.11       25.11       25.10       25.10       25.09       25.09    
        25.09       25.09       25.09       25.08       25.08       25.08       25.07       25.07       25.07       25.07    
        25.06       25.06       25.06       25.05       25.05       25.05       25.04       25.04       25.04       25.03    
        25.03       25.03       25.02       25.02       25.02       25.01       25.01       25.01       25.00       25.00    
  22    25.11       25.10       25.10       25.10       25.10       25.10       25.10       25.09       25.09       25.09    
        25.09       25.08       25.08       25.08       25.08       25.07       25.07       25.07       25.07       25.06    
        25.06       25.06       25.05       25.05       25.05       25.04       25.04       25.04       25.04       25.03    
        25.03       25.03       25.02       25.02       25.02       25.01       25.01       25.01       25.00       25.00    
  23    25.10       25.10       25.10       25.09       25.09       25.09       25.09       25.09       25.09       25.08    
        25.08       25.08       25.08       25.07       25.07       25.07       25.07       25.06       25.06       25.06    
        25.06       25.05       25.05       25.05       25.05       25.04       25.04       25.04       25.03       25.03    
        25.03       25.02       25.02       25.02       25.02       25.01       25.01       25.01       25.00       25.00    
  24    25.09       25.09       25.09       25.09       25.09       25.09       25.08       25.08       25.08       25.08    
        25.08       25.07       25.07       25.07       25.07       25.07       25.06       25.06       25.06       25.06    
        25.05       25.05       25.05       25.05       25.04       25.04       25.04       25.03       25.03       25.03    
        25.03       25.02       25.02       25.02       25.01       25.01       25.01       25.01       25.00       25.00    
  25    25.09       25.08       25.08       25.08       25.08       25.08       25.08       25.08       25.08       25.07    
        25.07       25.07       25.07       25.07       25.06       25.06       25.06       25.06       25.05       25.05    
        25.05       25.05       25.05       25.04       25.04       25.04       25.03       25.03       25.03       25.03    
        25.02       25.02       25.02       25.02       25.01       25.01       25.01       25.01       25.00       25.00    
  26    25.08       25.08       25.08       25.08       25.08       25.07       25.07       25.07       25.07       25.07    
        25.07       25.07       25.06       25.06       25.06       25.06       25.06       25.05       25.05       25.05    
        25.05       25.04       25.04       25.04       25.04       25.04       25.03       25.03       25.03       25.03    
        25.02       25.02       25.02       25.02       25.01       25.01       25.01       25.01       25.00       25.00    
  27    25.07       25.07       25.07       25.07       25.07       25.07       25.07       25.07       25.07       25.06    
        25.06       25.06       25.06       25.06       25.06       25.05       25.05       25.05       25.05       25.05    
        25.04       25.04       25.04       25.04       25.03       25.03       25.03       25.03       25.03       25.02    
        25.02       25.02       25.02       25.01       25.01       25.01       25.01       25.00       25.00       25.00    
  28    25.07       25.07       25.07       25.07       25.06       25.06       25.06       25.06       25.06       25.06    
        25.06       25.06       25.05       25.05       25.05       25.05       25.05       25.05       25.04       25.04    
        25.04       25.04       25.04       25.03       25.03       25.03       25.03       25.03       25.02       25.02    
        25.02       25.02       25.02       25.01       25.01       25.01       25.01       25.00       25.00       25.00    
  29    25.06       25.06       25.06       25.06       25.06       25.06       25.06       25.06       25.06       25.05    
        25.05       25.05       25.05       25.05       25.05       25.05       25.04       25.04       25.04       25.04    
        25.04       25.04       25.03       25.03       25.03       25.03       25.03       25.02       25.02       25.02    
        25.02       25.02       25.01       25.01       25.01       25.01       25.01       25.00       25.00       25.00    
  30    25.06       25.05       25.05       25.05       25.05       25.05       25.05       25.05       25.05       25.05    
        25.05       25.05       25.05       25.04       25.04       25.04       25.04       25.04       25.04       25.04    
        25.03       25.03       25.03       25.03       25.03       25.03       25.02       25.02       25.02       25.02    
        25.02       25.01       25.01       25.01       25.01       25.01       25.01       25.00       25.00       25.00    
  31    25.05       25.05       25.05       25.05       25.05       25.05       25.05       25.05       25.05       25.04    
        25.04       25.04       25.04       25.04       25.04       25.04       25.04       25.03       25.03       25.03    
        25.03       25.03       25.03       25.03       25.02       25.02       25.02       25.02       25.02       25.02    
        25.01       25.01       25.01       25.01       25.01       25.01       25.00       25.00       25.00       25.00    
  32    25.04       25.04       25.04       25.04       25.04       25.04       25.04       25.04       25.04       25.04    
        25.04       25.04       25.04       25.04       25.03       25.03       25.03       25.03       25.03       25.03    
        25.03       25.03       25.02       25.02       25.02       25.02       25.02       25.02       25.02       25.01    
        25.01       25.01       25.01       25.01       25.01       25.01       25.00       25.00       25.00       25.00    
  33    25.04       25.04       25.04       25.04       25.04       25.04       25.04       25.04       25.04       25.03    
        25.03       25.03       25.03       25.03       25.03       25.03       25.03       25.03       25.03       25.02    
        25.02       25.02       25.02       25.02       25.02       25.02       25.02       25.02       25.01       25.01    
        25.01       25.01       25.01       25.01       25.01       25.01       25.00       25.00       25.00       25.00    
  34    25.03       25.03       25.03       25.03       25.03       25.03       25.03       25.03       25.03       25.03    
        25.03       25.03       25.03       25.03       25.03       25.02       25.02       25.02       25.02       25.02    
        25.02       25.02       25.02       25.02       25.02       25.02       25.01       25.01       25.01       25.01    
        25.01       25.01       25.01       25.01       25.01       25.00       25.00       25.00       25.00       25.00    
  35    25.03       25.03       25.03       25.03       25.03       25.03       25.03       25.03       25.02       25.02    
        25.02       25.02       25.02       25.02       25.02       25.02       25.02       25.02       25.02       25.02    
        25.02       25.02       25.02       25.01       25.01       25.01       25.01       25.01       25.01       25.01    
        25.01       25.01       25.01       25.01       25.00       25.00       25.00       25.00       25.00       25.00    
  36    25.02       25.02       25.02       25.02       25.02       25.02       25.02       25.02       25.02       25.02    
        25.02       25.02       25.02       25.02       25.02       25.02       25.02       25.02       25.01       25.01    
        25.01       25.01       25.01       25.01       25.01       25.01       25.01       25.01       25.01       25.01    
        25.01       25.01       25.01       25.00       25.00       25.00       25.00       25.00       25.00       25.00    
  37    25.02       25.02       25.02       25.02       25.02       25.02       25.02       25.02       25.01       25.01    
        25.01       25.01       25.01       25.01       25.01       25.01       25.01       25.01       25.01       25.01    
        25.01       25.01       25.01       25.01       25.01       25.01       25.01       25.01       25.01       25.01    
        25.00       25.00       25.00       25.00       25.00       25.00       25.00       25.00       25.00       25.00    
  38    25.01       25.01       25.01       25.01       25.01       25.01       25.01       25.01       25.01       25.01    
        25.01       25.01       25.01       25.01       25.01       25.01       25.01       25.01       25.01       25.01    
        25.01       25.01       25.01       25.01       25.01       25.01       25.00       25.00       25.00       25.00    
        25.00       25.00       25.00       25.00       25.00       25.00       25.00       25.00       25.00       25.00    
  39    25.01       25.01       25.01       25.01       25.01       25.01       25.01       25.01       25.00       25.00    
        25.00       25.00       25.00       25.00       25.00       25.00       25.00       25.00       25.00       25.00    
        25.00       25.00       25.00       25.00       25.00       25.00       25.00       25.00       25.00       25.00    
        25.00       25.00       25.00       25.00       25.00       25.00       25.00       25.00       25.00       25.00    
  40    25.00       25.00       25.00       25.00       25.00       25.00       25.00       25.00       25.00       25.00    
        25.00       25.00       25.00       25.00       25.00       25.00       25.00       25.00       25.00       25.00    
        25.00       25.00       25.00       25.00       25.00       25.00       25.00       25.00       25.00       25.00    
        25.00       25.00       25.00       25.00       25.00       25.00       25.00       25.00       25.00       25.00    
1
              HEAD IN LAYER  12 AT END OF TIME STEP   2 IN STRESS PERIOD    2
  ---------------------------------------------------------------------------

            1           2           3           4           5           6           7           8           9          10
           11          12          13          14          15          16          17          18          19          20
           21          22          23          24          25          26          27          28          29          30
           31          32          33          34          35          36          37          38          39          40
 ........................................................................................................................
   1    44.43       42.81       39.47       36.50       34.10       32.18       30.63       29.39       28.42       27.64    
        27.04       26.56       26.20       25.91       25.69       25.51       25.37       25.27       25.20       25.16    
        25.12       25.11       25.10       25.09       25.09       25.08       25.07       25.07       25.06       25.06    
        25.05       25.04       25.04       25.03       25.03       25.02       25.02       25.01       25.01       25.00    
   2    42.81       41.40       38.48       35.84       33.66       31.88       30.42       29.25       28.31       27.57    
        26.98       26.53       26.17       25.89       25.68       25.50       25.36       25.27       25.20       25.15    
        25.12       25.11       25.10       25.09       25.08       25.08       25.07       25.07       25.06       25.05    
        25.05       25.04       25.04       25.03       25.03       25.02       25.02       25.01       25.01       25.00    
   3    39.47       38.48       36.60       34.63       32.86       31.33       30.04       28.98       28.12       27.43    
        26.89       26.46       26.12       25.86       25.65       25.47       25.35       25.26       25.19       25.15    
        25.12       25.10       25.10       25.09       25.08       25.08       25.07       25.07       25.06       25.05    
        25.05       25.04       25.04       25.03       25.03       25.02       25.02       25.01       25.01       25.00    
   4    36.50       35.84       34.63       33.24       31.87       30.62       29.53       28.62       27.86       27.25    
        26.75       26.36       26.05       25.80       25.61       25.44       25.33       25.24       25.18       25.14    
        25.12       25.10       25.09       25.09       25.08       25.08       25.07       25.07       25.06       25.05    
        25.05       25.04       25.04       25.03       25.03       25.02       25.02       25.01       25.01       25.00    
   5    34.10       33.66       32.86       31.87       30.84       29.85       28.97       28.21       27.56       27.03    
        26.59       26.24       25.96       25.74       25.56       25.41       25.30       25.23       25.17       25.14    
        25.11       25.10       25.09       25.09       25.08       25.08       25.07       25.06       25.06       25.05    
        25.05       25.04       25.04       25.03       25.03       25.02       25.02       25.01       25.01       25.00    
   6    32.18       31.88       31.33       30.62       29.85       29.10       28.40       27.78       27.24       26.79    
        26.42       26.11       25.87       25.67       25.50       25.37       25.28       25.21       25.16       25.13    
        25.11       25.10       25.09       25.09       25.08       25.07       25.07       25.06       25.06       25.05    
        25.05       25.04       25.04       25.03       25.03       25.02       25.02       25.01       25.01       25.00    
   7    30.63       30.42       30.04       29.53       28.97       28.40       27.86       27.36       26.93       26.55    
        26.24       25.98       25.77       25.59       25.44       25.33       25.25       25.19       25.15       25.12    
        25.10       25.10       25.09       25.08       25.08       25.07       25.07       25.06       25.06       25.05    
        25.05       25.04       25.04       25.03       25.03       25.02       25.02       25.01       25.01       25.00    
   8    29.39       29.25       28.98       28.62       28.21       27.78       27.36       26.97       26.63       26.32    
        26.07       25.85       25.66       25.50       25.38       25.29       25.22       25.17       25.14       25.11    
        25.10       25.09       25.09       25.08       25.08       25.07       25.07       25.06       25.06       25.05    
        25.05       25.04       25.04       25.03       25.03       25.02       25.02       25.01       25.01       25.00    
   9    28.42       28.31       28.12       27.86       27.56       27.24       26.93       26.63       26.35       26.11    
        25.90       25.72       25.56       25.43       25.33       25.25       25.19       25.15       25.12       25.11    
        25.09       25.09       25.09       25.08       25.08       25.07       25.07       25.06       25.06       25.05    
        25.05       25.04       25.04       25.03       25.02       25.02       25.01       25.01       25.00       25.00    
  10    27.64       27.57       27.43       27.25       27.03       26.79       26.55       26.32       26.11       25.92    
        25.75       25.60       25.46       25.36       25.28       25.22       25.17       25.14       25.11       25.10    
        25.09       25.09       25.08       25.08       25.07       25.07       25.06       25.06       25.05       25.05    
        25.04       25.04       25.03       25.03       25.02       25.02       25.01       25.01       25.00       25.00    
  11    27.04       26.98       26.89       26.75       26.59       26.42       26.24       26.07       25.90       25.75    
        25.61       25.48       25.38       25.30       25.23       25.18       25.15       25.12       25.10       25.09    
        25.09       25.09       25.08       25.08       25.07       25.07       25.06       25.06       25.05       25.05    
        25.04       25.04       25.03       25.03       25.02       25.02       25.01       25.01       25.00       25.00    
  12    26.56       26.53       26.46       26.36       26.24       26.11       25.98       25.85       25.72       25.60    
        25.48       25.39       25.31       25.24       25.20       25.16       25.13       25.11       25.10       25.09    
        25.09       25.08       25.08       25.07       25.07       25.07       25.06       25.06       25.05       25.05    
        25.04       25.04       25.03       25.03       25.02       25.02       25.01       25.01       25.00       25.00    
  13    26.20       26.17       26.12       26.05       25.96       25.87       25.77       25.66       25.56       25.46    
        25.38       25.31       25.25       25.20       25.16       25.14       25.11       25.10       25.09       25.09    
        25.09       25.08       25.08       25.07       25.07       25.06       25.06       25.05       25.05       25.05    
        25.04       25.04       25.03       25.03       25.02       25.02       25.01       25.01       25.00       25.00    
  14    25.91       25.89       25.86       25.80       25.74       25.67       25.59       25.50       25.43       25.36    
        25.30       25.24       25.20       25.17       25.14       25.12       25.10       25.09       25.09       25.09    
        25.08       25.08       25.07       25.07       25.07       25.06       25.06       25.05       25.05       25.04    
        25.04       25.04       25.03       25.03       25.02       25.02       25.01       25.01       25.00       25.00    
  15    25.69       25.68       25.65       25.61       25.56       25.50       25.44       25.38       25.33       25.28    
        25.23       25.20       25.16       25.14       25.12       25.11       25.10       25.09       25.09       25.08    
        25.08       25.08       25.07       25.07       25.06       25.06       25.06       25.05       25.05       25.04    
        25.04       25.03       25.03       25.03       25.02       25.02       25.01       25.01       25.00       25.00    
  16    25.51       25.50       25.47       25.44       25.41       25.37       25.33       25.29       25.25       25.22    
        25.18       25.16       25.14       25.12       25.11       25.10       25.09       25.09       25.09       25.08    
        25.08       25.07       25.07       25.07       25.06       25.06       25.05       25.05       25.05       25.04    
        25.04       25.03       25.03       25.02       25.02       25.02       25.01       25.01       25.00       25.00    
  17    25.37       25.36       25.35       25.33       25.30       25.28       25.25       25.22       25.19       25.17    
        25.15       25.13       25.11       25.10       25.10       25.09       25.09       25.09       25.08       25.08    
        25.07       25.07       25.07       25.06       25.06       25.06       25.05       25.05       25.04       25.04    
        25.04       25.03       25.03       25.02       25.02       25.02       25.01       25.01       25.00       25.00    
  18    25.27       25.27       25.26       25.24       25.23       25.21       25.19       25.17       25.15       25.14    
        25.12       25.11       25.10       25.09       25.09       25.09       25.09       25.08       25.08       25.08    
        25.07       25.07       25.06       25.06       25.06       25.05       25.05       25.05       25.04       25.04    
        25.03       25.03       25.03       25.02       25.02       25.02       25.01       25.01       25.00       25.00    
  19    25.20       25.20       25.19       25.18       25.17       25.16       25.15       25.14       25.12       25.11    
        25.10       25.10       25.09       25.09       25.09       25.09       25.08       25.08       25.08       25.07    
        25.07       25.07       25.06       25.06       25.05       25.05       25.05       25.04       25.04       25.04    
        25.03       25.03       25.03       25.02       25.02       25.01       25.01       25.01       25.00       25.00    
  20    25.16       25.15       25.15       25.14       25.14       25.13       25.12       25.11       25.11       25.10    
        25.09       25.09       25.09       25.09       25.08       25.08       25.08       25.08       25.07       25.07    
        25.07       25.06       25.06       25.06       25.05       25.05       25.05       25.04       25.04       25.04    
        25.03       25.03       25.02       25.02       25.02       25.01       25.01       25.01       25.00       25.00    
  21    25.12       25.12       25.12       25.12       25.11       25.11       25.10       25.10       25.09       25.09    
        25.09       25.09       25.09       25.08       25.08       25.08       25.07       25.07       25.07       25.07    
        25.06       25.06       25.06       25.05       25.05       25.05       25.04       25.04       25.04       25.03    
        25.03       25.03       25.02       25.02       25.02       25.01       25.01       25.01       25.00       25.00    
  22    25.11       25.11       25.10       25.10       25.10       25.10       25.10       25.09       25.09       25.09    
        25.09       25.08       25.08       25.08       25.08       25.07       25.07       25.07       25.07       25.06    
        25.06       25.06       25.05       25.05       25.05       25.04       25.04       25.04       25.04       25.03    
        25.03       25.03       25.02       25.02       25.02       25.01       25.01       25.01       25.00       25.00    
  23    25.10       25.10       25.10       25.09       25.09       25.09       25.09       25.09       25.09       25.08    
        25.08       25.08       25.08       25.07       25.07       25.07       25.07       25.06       25.06       25.06    
        25.06       25.05       25.05       25.05       25.05       25.04       25.04       25.04       25.03       25.03    
        25.03       25.02       25.02       25.02       25.02       25.01       25.01       25.01       25.00       25.00    
  24    25.09       25.09       25.09       25.09       25.09       25.09       25.08       25.08       25.08       25.08    
        25.08       25.07       25.07       25.07       25.07       25.07       25.06       25.06       25.06       25.06    
        25.05       25.05       25.05       25.05       25.04       25.04       25.04       25.03       25.03       25.03    
        25.03       25.02       25.02       25.02       25.01       25.01       25.01       25.01       25.00       25.00    
  25    25.09       25.08       25.08       25.08       25.08       25.08       25.08       25.08       25.08       25.07    
        25.07       25.07       25.07       25.07       25.06       25.06       25.06       25.06       25.05       25.05    
        25.05       25.05       25.05       25.04       25.04       25.04       25.03       25.03       25.03       25.03    
        25.02       25.02       25.02       25.02       25.01       25.01       25.01       25.01       25.00       25.00    
  26    25.08       25.08       25.08       25.08       25.08       25.07       25.07       25.07       25.07       25.07    
        25.07       25.07       25.06       25.06       25.06       25.06       25.06       25.05       25.05       25.05    
        25.05       25.04       25.04       25.04       25.04       25.04       25.03       25.03       25.03       25.03    
        25.02       25.02       25.02       25.02       25.01       25.01       25.01       25.01       25.00       25.00    
  27    25.07       25.07       25.07       25.07       25.07       25.07       25.07       25.07       25.07       25.06    
        25.06       25.06       25.06       25.06       25.06       25.05       25.05       25.05       25.05       25.05    
        25.04       25.04       25.04       25.04       25.03       25.03       25.03       25.03       25.03       25.02    
        25.02       25.02       25.02       25.01       25.01       25.01       25.01       25.00       25.00       25.00    
  28    25.07       25.07       25.07       25.07       25.06       25.06       25.06       25.06       25.06       25.06    
        25.06       25.06       25.05       25.05       25.05       25.05       25.05       25.05       25.04       25.04    
        25.04       25.04       25.04       25.03       25.03       25.03       25.03       25.03       25.02       25.02    
        25.02       25.02       25.02       25.01       25.01       25.01       25.01       25.00       25.00       25.00    
  29    25.06       25.06       25.06       25.06       25.06       25.06       25.06       25.06       25.06       25.05    
        25.05       25.05       25.05       25.05       25.05       25.05       25.04       25.04       25.04       25.04    
        25.04       25.04       25.03       25.03       25.03       25.03       25.03       25.02       25.02       25.02    
        25.02       25.02       25.01       25.01       25.01       25.01       25.01       25.00       25.00       25.00    
  30    25.06       25.05       25.05       25.05       25.05       25.05       25.05       25.05       25.05       25.05    
        25.05       25.05       25.05       25.04       25.04       25.04       25.04       25.04       25.04       25.04    
        25.03       25.03       25.03       25.03       25.03       25.03       25.02       25.02       25.02       25.02    
        25.02       25.01       25.01       25.01       25.01       25.01       25.01       25.00       25.00       25.00    
  31    25.05       25.05       25.05       25.05       25.05       25.05       25.05       25.05       25.05       25.04    
        25.04       25.04       25.04       25.04       25.04       25.04       25.04       25.03       25.03       25.03    
        25.03       25.03       25.03       25.03       25.02       25.02       25.02       25.02       25.02       25.02    
        25.01       25.01       25.01       25.01       25.01       25.01       25.00       25.00       25.00       25.00    
  32    25.04       25.04       25.04       25.04       25.04       25.04       25.04       25.04       25.04       25.04    
        25.04       25.04       25.04       25.04       25.03       25.03       25.03       25.03       25.03       25.03    
        25.03       25.03       25.02       25.02       25.02       25.02       25.02       25.02       25.02       25.01    
        25.01       25.01       25.01       25.01       25.01       25.01       25.00       25.00       25.00       25.00    
  33    25.04       25.04       25.04       25.04       25.04       25.04       25.04       25.04       25.04       25.03    
        25.03       25.03       25.03       25.03       25.03       25.03       25.03       25.03       25.03       25.02    
        25.02       25.02       25.02       25.02       25.02       25.02       25.02       25.02       25.01       25.01    
        25.01       25.01       25.01       25.01       25.01       25.01       25.00       25.00       25.00       25.00    
  34    25.03       25.03       25.03       25.03       25.03       25.03       25.03       25.03       25.03       25.03    
        25.03       25.03       25.03       25.03       25.03       25.02       25.02       25.02       25.02       25.02    
        25.02       25.02       25.02       25.02       25.02       25.02       25.01       25.01       25.01       25.01    
        25.01       25.01       25.01       25.01       25.01       25.00       25.00       25.00       25.00       25.00    
  35    25.03       25.03       25.03       25.03       25.03       25.03       25.03       25.03       25.02       25.02    
        25.02       25.02       25.02       25.02       25.02       25.02       25.02       25.02       25.02       25.02    
        25.02       25.02       25.02       25.01       25.01       25.01       25.01       25.01       25.01       25.01    
        25.01       25.01       25.01       25.01       25.00       25.00       25.00       25.00       25.00       25.00    
  36    25.02       25.02       25.02       25.02       25.02       25.02       25.02       25.02       25.02       25.02    
        25.02       25.02       25.02       25.02       25.02       25.02       25.02       25.02       25.01       25.01    
        25.01       25.01       25.01       25.01       25.01       25.01       25.01       25.01       25.01       25.01    
        25.01       25.01       25.01       25.00       25.00       25.00       25.00       25.00       25.00       25.00    
  37    25.02       25.02       25.02       25.02       25.02       25.02       25.02       25.02       25.01       25.01    
        25.01       25.01       25.01       25.01       25.01       25.01       25.01       25.01       25.01       25.01    
        25.01       25.01       25.01       25.01       25.01       25.01       25.01       25.01       25.01       25.01    
        25.00       25.00       25.00       25.00       25.00       25.00       25.00       25.00       25.00       25.00    
  38    25.01       25.01       25.01       25.01       25.01       25.01       25.01       25.01       25.01       25.01    
        25.01       25.01       25.01       25.01       25.01       25.01       25.01       25.01       25.01       25.01    
        25.01       25.01       25.01       25.01       25.01       25.01       25.00       25.00       25.00       25.00    
        25.00       25.00       25.00       25.00       25.00       25.00       25.00       25.00       25.00       25.00    
  39    25.01       25.01       25.01       25.01       25.01       25.01       25.01       25.01       25.00       25.00    
        25.00       25.00       25.00       25.00       25.00       25.00       25.00       25.00       25.00       25.00    
        25.00       25.00       25.00       25.00       25.00       25.00       25.00       25.00       25.00       25.00    
        25.00       25.00       25.00       25.00       25.00       25.00       25.00       25.00       25.00       25.00    
  40    25.00       25.00       25.00       25.00       25.00       25.00       25.00       25.00       25.00       25.00    
        25.00       25.00       25.00       25.00       25.00       25.00       25.00       25.00       25.00       25.00    
        25.00       25.00       25.00       25.00       25.00       25.00       25.00       25.00       25.00       25.00    
        25.00       25.00       25.00       25.00       25.00       25.00       25.00       25.00       25.00       25.00    
1
              HEAD IN LAYER  13 AT END OF TIME STEP   2 IN STRESS PERIOD    2
  ---------------------------------------------------------------------------

            1           2           3           4           5           6           7           8           9          10
           11          12          13          14          15          16          17          18          19          20
           21          22          23          24          25          26          27          28          29          30
           31          32          33          34          35          36          37          38          39          40
 ........................................................................................................................
   1    44.22       42.62       39.42       36.49       34.10       32.19       30.64       29.40       28.42       27.65    
        27.04       26.57       26.20       25.91       25.69       25.52       25.38       25.27       25.20       25.16    
        25.13       25.11       25.10       25.09       25.09       25.08       25.07       25.07       25.06       25.06    
        25.05       25.04       25.04       25.03       25.03       25.02       25.02       25.01       25.01       25.00    
   2    42.62       41.23       38.43       35.83       33.66       31.89       30.43       29.26       28.32       27.58    
        26.99       26.53       26.17       25.90       25.68       25.50       25.37       25.27       25.20       25.15    
        25.12       25.11       25.10       25.09       25.08       25.08       25.07       25.07       25.06       25.05    
        25.05       25.04       25.04       25.03       25.03       25.02       25.02       25.01       25.01       25.00    
   3    39.42       38.43       36.58       34.63       32.86       31.34       30.04       28.99       28.13       27.44    
        26.89       26.46       26.12       25.86       25.65       25.48       25.35       25.26       25.19       25.15    
        25.12       25.10       25.10       25.09       25.08       25.08       25.07       25.07       25.06       25.05    
        25.05       25.04       25.04       25.03       25.03       25.02       25.02       25.01       25.01       25.00    
   4    36.49       35.83       34.63       33.24       31.87       30.63       29.54       28.63       27.87       27.25    
        26.76       26.36       26.05       25.81       25.61       25.45       25.33       25.24       25.18       25.14    
        25.12       25.10       25.09       25.09       25.08       25.08       25.07       25.07       25.06       25.05    
        25.05       25.04       25.04       25.03       25.03       25.02       25.02       25.01       25.01       25.00    
   5    34.10       33.66       32.86       31.87       30.85       29.86       28.98       28.21       27.57       27.03    
        26.60       26.25       25.97       25.74       25.56       25.41       25.30       25.23       25.17       25.14    
        25.11       25.10       25.09       25.09       25.08       25.08       25.07       25.06       25.06       25.05    
        25.05       25.04       25.04       25.03       25.03       25.02       25.02       25.01       25.01       25.00    
   6    32.19       31.89       31.34       30.63       29.86       29.11       28.41       27.78       27.25       26.80    
        26.42       26.12       25.87       25.67       25.50       25.37       25.28       25.21       25.16       25.13    
        25.11       25.10       25.09       25.09       25.08       25.07       25.07       25.06       25.06       25.05    
        25.05       25.04       25.04       25.03       25.03       25.02       25.02       25.01       25.01       25.00    
   7    30.64       30.43       30.04       29.54       28.98       28.41       27.86       27.37       26.93       26.56    
        26.24       25.98       25.77       25.59       25.44       25.33       25.25       25.19       25.15       25.12    
        25.10       25.10       25.09       25.08       25.08       25.07       25.07       25.06       25.06       25.05    
        25.05       25.04       25.04       25.03       25.03       25.02       25.02       25.01       25.01       25.00    
   8    29.40       29.26       28.99       28.63       28.21       27.78       27.37       26.98       26.63       26.33    
        26.07       25.85       25.66       25.51       25.38       25.29       25.22       25.17       25.14       25.11    
        25.10       25.09       25.09       25.08       25.08       25.07       25.07       25.06       25.06       25.05    
        25.05       25.04       25.04       25.03       25.03       25.02       25.02       25.01       25.01       25.00    
   9    28.42       28.32       28.13       27.87       27.57       27.25       26.93       26.63       26.36       26.11    
        25.90       25.72       25.56       25.43       25.33       25.25       25.19       25.15       25.12       25.11    
        25.10       25.09       25.09       25.08       25.08       25.07       25.07       25.06       25.06       25.05    
        25.05       25.04       25.04       25.03       25.02       25.02       25.01       25.01       25.00       25.00    
  10    27.65       27.58       27.44       27.25       27.03       26.80       26.56       26.33       26.11       25.92    
        25.75       25.60       25.47       25.36       25.28       25.22       25.17       25.14       25.11       25.10    
        25.09       25.09       25.08       25.08       25.07       25.07       25.06       25.06       25.05       25.05    
        25.04       25.04       25.03       25.03       25.02       25.02       25.01       25.01       25.00       25.00    
  11    27.04       26.99       26.89       26.76       26.60       26.42       26.24       26.07       25.90       25.75    
        25.61       25.48       25.38       25.30       25.23       25.19       25.15       25.12       25.11       25.10    
        25.09       25.09       25.08       25.08       25.07       25.07       25.06       25.06       25.05       25.05    
        25.04       25.04       25.03       25.03       25.02       25.02       25.01       25.01       25.00       25.00    
  12    26.57       26.53       26.46       26.36       26.25       26.12       25.98       25.85       25.72       25.60    
        25.48       25.39       25.31       25.25       25.20       25.16       25.13       25.11       25.10       25.09    
        25.09       25.08       25.08       25.07       25.07       25.07       25.06       25.06       25.05       25.05    
        25.04       25.04       25.03       25.03       25.02       25.02       25.01       25.01       25.00       25.00    
  13    26.20       26.17       26.12       26.05       25.97       25.87       25.77       25.66       25.56       25.47    
        25.38       25.31       25.25       25.20       25.17       25.14       25.12       25.10       25.09       25.09    
        25.09       25.08       25.08       25.07       25.07       25.06       25.06       25.05       25.05       25.05    
        25.04       25.04       25.03       25.03       25.02       25.02       25.01       25.01       25.00       25.00    
  14    25.91       25.90       25.86       25.81       25.74       25.67       25.59       25.51       25.43       25.36    
        25.30       25.25       25.20       25.17       25.14       25.12       25.10       25.10       25.09       25.09    
        25.08       25.08       25.07       25.07       25.07       25.06       25.06       25.05       25.05       25.04    
        25.04       25.04       25.03       25.03       25.02       25.02       25.01       25.01       25.00       25.00    
  15    25.69       25.68       25.65       25.61       25.56       25.50       25.44       25.38       25.33       25.28    
        25.23       25.20       25.17       25.14       25.12       25.11       25.10       25.09       25.09       25.08    
        25.08       25.08       25.07       25.07       25.06       25.06       25.06       25.05       25.05       25.04    
        25.04       25.03       25.03       25.03       25.02       25.02       25.01       25.01       25.00       25.00    
  16    25.52       25.50       25.48       25.45       25.41       25.37       25.33       25.29       25.25       25.22    
        25.19       25.16       25.14       25.12       25.11       25.10       25.09       25.09       25.09       25.08    
        25.08       25.07       25.07       25.07       25.06       25.06       25.05       25.05       25.05       25.04    
        25.04       25.03       25.03       25.02       25.02       25.02       25.01       25.01       25.00       25.00    
  17    25.38       25.37       25.35       25.33       25.30       25.28       25.25       25.22       25.19       25.17    
        25.15       25.13       25.12       25.10       25.10       25.09       25.09       25.09       25.08       25.08    
        25.07       25.07       25.07       25.06       25.06       25.06       25.05       25.05       25.04       25.04    
        25.04       25.03       25.03       25.02       25.02       25.02       25.01       25.01       25.00       25.00    
  18    25.27       25.27       25.26       25.24       25.23       25.21       25.19       25.17       25.15       25.14    
        25.12       25.11       25.10       25.10       25.09       25.09       25.09       25.08       25.08       25.08    
        25.07       25.07       25.06       25.06       25.06       25.05       25.05       25.05       25.04       25.04    
        25.03       25.03       25.03       25.02       25.02       25.02       25.01       25.01       25.00       25.00    
  19    25.20       25.20       25.19       25.18       25.17       25.16       25.15       25.14       25.12       25.11    
        25.11       25.10       25.09       25.09       25.09       25.09       25.08       25.08       25.08       25.07    
        25.07       25.07       25.06       25.06       25.05       25.05       25.05       25.04       25.04       25.04    
        25.03       25.03       25.03       25.02       25.02       25.01       25.01       25.01       25.00       25.00    
  20    25.16       25.15       25.15       25.14       25.14       25.13       25.12       25.11       25.11       25.10    
        25.10       25.09       25.09       25.09       25.08       25.08       25.08       25.08       25.07       25.07    
        25.07       25.06       25.06       25.06       25.05       25.05       25.05       25.04       25.04       25.04    
        25.03       25.03       25.02       25.02       25.02       25.01       25.01       25.01       25.00       25.00    
  21    25.13       25.12       25.12       25.12       25.11       25.11       25.10       25.10       25.10       25.09    
        25.09       25.09       25.09       25.08       25.08       25.08       25.07       25.07       25.07       25.07    
        25.06       25.06       25.06       25.05       25.05       25.05       25.04       25.04       25.04       25.03    
        25.03       25.03       25.02       25.02       25.02       25.01       25.01       25.01       25.00       25.00    
  22    25.11       25.11       25.10       25.10       25.10       25.10       25.10       25.09       25.09       25.09    
        25.09       25.08       25.08       25.08       25.08       25.07       25.07       25.07       25.07       25.06    
        25.06       25.06       25.05       25.05       25.05       25.04       25.04       25.04       25.04       25.03    
        25.03       25.03       25.02       25.02       25.02       25.01       25.01       25.01       25.00       25.00    
  23    25.10       25.10       25.10       25.09       25.09       25.09       25.09       25.09       25.09       25.08    
        25.08       25.08       25.08       25.07       25.07       25.07       25.07       25.06       25.06       25.06    
        25.06       25.05       25.05       25.05       25.05       25.04       25.04       25.04       25.03       25.03    
        25.03       25.02       25.02       25.02       25.02       25.01       25.01       25.01       25.00       25.00    
  24    25.09       25.09       25.09       25.09       25.09       25.09       25.08       25.08       25.08       25.08    
        25.08       25.07       25.07       25.07       25.07       25.07       25.06       25.06       25.06       25.06    
        25.05       25.05       25.05       25.05       25.04       25.04       25.04       25.03       25.03       25.03    
        25.03       25.02       25.02       25.02       25.01       25.01       25.01       25.01       25.00       25.00    
  25    25.09       25.08       25.08       25.08       25.08       25.08       25.08       25.08       25.08       25.07    
        25.07       25.07       25.07       25.07       25.06       25.06       25.06       25.06       25.05       25.05    
        25.05       25.05       25.05       25.04       25.04       25.04       25.03       25.03       25.03       25.03    
        25.02       25.02       25.02       25.02       25.01       25.01       25.01       25.01       25.00       25.00    
  26    25.08       25.08       25.08       25.08       25.08       25.07       25.07       25.07       25.07       25.07    
        25.07       25.07       25.06       25.06       25.06       25.06       25.06       25.05       25.05       25.05    
        25.05       25.04       25.04       25.04       25.04       25.04       25.03       25.03       25.03       25.03    
        25.02       25.02       25.02       25.02       25.01       25.01       25.01       25.01       25.00       25.00    
  27    25.07       25.07       25.07       25.07       25.07       25.07       25.07       25.07       25.07       25.06    
        25.06       25.06       25.06       25.06       25.06       25.05       25.05       25.05       25.05       25.05    
        25.04       25.04       25.04       25.04       25.03       25.03       25.03       25.03       25.03       25.02    
        25.02       25.02       25.02       25.01       25.01       25.01       25.01       25.00       25.00       25.00    
  28    25.07       25.07       25.07       25.07       25.06       25.06       25.06       25.06       25.06       25.06    
        25.06       25.06       25.05       25.05       25.05       25.05       25.05       25.05       25.04       25.04    
        25.04       25.04       25.04       25.03       25.03       25.03       25.03       25.03       25.02       25.02    
        25.02       25.02       25.02       25.01       25.01       25.01       25.01       25.00       25.00       25.00    
  29    25.06       25.06       25.06       25.06       25.06       25.06       25.06       25.06       25.06       25.05    
        25.05       25.05       25.05       25.05       25.05       25.05       25.04       25.04       25.04       25.04    
        25.04       25.04       25.03       25.03       25.03       25.03       25.03       25.02       25.02       25.02    
        25.02       25.02       25.01       25.01       25.01       25.01       25.01       25.00       25.00       25.00    
  30    25.06       25.05       25.05       25.05       25.05       25.05       25.05       25.05       25.05       25.05    
        25.05       25.05       25.05       25.04       25.04       25.04       25.04       25.04       25.04       25.04    
        25.03       25.03       25.03       25.03       25.03       25.03       25.02       25.02       25.02       25.02    
        25.02       25.01       25.01       25.01       25.01       25.01       25.01       25.00       25.00       25.00    
  31    25.05       25.05       25.05       25.05       25.05       25.05       25.05       25.05       25.05       25.04    
        25.04       25.04       25.04       25.04       25.04       25.04       25.04       25.03       25.03       25.03    
        25.03       25.03       25.03       25.03       25.02       25.02       25.02       25.02       25.02       25.02    
        25.01       25.01       25.01       25.01       25.01       25.01       25.00       25.00       25.00       25.00    
  32    25.04       25.04       25.04       25.04       25.04       25.04       25.04       25.04       25.04       25.04    
        25.04       25.04       25.04       25.04       25.03       25.03       25.03       25.03       25.03       25.03    
        25.03       25.03       25.02       25.02       25.02       25.02       25.02       25.02       25.02       25.01    
        25.01       25.01       25.01       25.01       25.01       25.01       25.00       25.00       25.00       25.00    
  33    25.04       25.04       25.04       25.04       25.04       25.04       25.04       25.04       25.04       25.03    
        25.03       25.03       25.03       25.03       25.03       25.03       25.03       25.03       25.03       25.02    
        25.02       25.02       25.02       25.02       25.02       25.02       25.02       25.02       25.01       25.01    
        25.01       25.01       25.01       25.01       25.01       25.01       25.00       25.00       25.00       25.00    
  34    25.03       25.03       25.03       25.03       25.03       25.03       25.03       25.03       25.03       25.03    
        25.03       25.03       25.03       25.03       25.03       25.02       25.02       25.02       25.02       25.02    
        25.02       25.02       25.02       25.02       25.02       25.02       25.01       25.01       25.01       25.01    
        25.01       25.01       25.01       25.01       25.01       25.00       25.00       25.00       25.00       25.00    
  35    25.03       25.03       25.03       25.03       25.03       25.03       25.03       25.03       25.02       25.02    
        25.02       25.02       25.02       25.02       25.02       25.02       25.02       25.02       25.02       25.02    
        25.02       25.02       25.02       25.01       25.01       25.01       25.01       25.01       25.01       25.01    
        25.01       25.01       25.01       25.01       25.00       25.00       25.00       25.00       25.00       25.00    
  36    25.02       25.02       25.02       25.02       25.02       25.02       25.02       25.02       25.02       25.02    
        25.02       25.02       25.02       25.02       25.02       25.02       25.02       25.02       25.01       25.01    
        25.01       25.01       25.01       25.01       25.01       25.01       25.01       25.01       25.01       25.01    
        25.01       25.01       25.01       25.00       25.00       25.00       25.00       25.00       25.00       25.00    
  37    25.02       25.02       25.02       25.02       25.02       25.02       25.02       25.02       25.01       25.01    
        25.01       25.01       25.01       25.01       25.01       25.01       25.01       25.01       25.01       25.01    
        25.01       25.01       25.01       25.01       25.01       25.01       25.01       25.01       25.01       25.01    
        25.00       25.00       25.00       25.00       25.00       25.00       25.00       25.00       25.00       25.00    
  38    25.01       25.01       25.01       25.01       25.01       25.01       25.01       25.01       25.01       25.01    
        25.01       25.01       25.01       25.01       25.01       25.01       25.01       25.01       25.01       25.01    
        25.01       25.01       25.01       25.01       25.01       25.01       25.00       25.00       25.00       25.00    
        25.00       25.00       25.00       25.00       25.00       25.00       25.00       25.00       25.00       25.00    
  39    25.01       25.01       25.01       25.01       25.01       25.01       25.01       25.01       25.00       25.00    
        25.00       25.00       25.00       25.00       25.00       25.00       25.00       25.00       25.00       25.00    
        25.00       25.00       25.00       25.00       25.00       25.00       25.00       25.00       25.00       25.00    
        25.00       25.00       25.00       25.00       25.00       25.00       25.00       25.00       25.00       25.00    
  40    25.00       25.00       25.00       25.00       25.00       25.00       25.00       25.00       25.00       25.00    
        25.00       25.00       25.00       25.00       25.00       25.00       25.00       25.00       25.00       25.00    
        25.00       25.00       25.00       25.00       25.00       25.00       25.00       25.00       25.00       25.00    
        25.00       25.00       25.00       25.00       25.00       25.00       25.00       25.00       25.00       25.00    
1
              HEAD IN LAYER  14 AT END OF TIME STEP   2 IN STRESS PERIOD    2
  ---------------------------------------------------------------------------

            1           2           3           4           5           6           7           8           9          10
           11          12          13          14          15          16          17          18          19          20
           21          22          23          24          25          26          27          28          29          30
           31          32          33          34          35          36          37          38          39          40
 ........................................................................................................................
   1    44.12       42.53       39.40       36.49       34.10       32.19       30.64       29.40       28.43       27.65    
        27.04       26.57       26.20       25.92       25.69       25.52       25.38       25.28       25.20       25.16    
        25.13       25.11       25.10       25.09       25.09       25.08       25.07       25.07       25.06       25.06    
        25.05       25.04       25.04       25.03       25.03       25.02       25.02       25.01       25.01       25.00    
   2    42.53       41.14       38.41       35.82       33.66       31.89       30.43       29.26       28.32       27.58    
        26.99       26.53       26.18       25.90       25.68       25.50       25.37       25.27       25.20       25.15    
        25.12       25.11       25.10       25.09       25.08       25.08       25.07       25.07       25.06       25.05    
        25.05       25.04       25.04       25.03       25.03       25.02       25.02       25.01       25.01       25.00    
   3    39.40       38.41       36.58       34.63       32.86       31.34       30.05       28.99       28.13       27.44    
        26.90       26.46       26.12       25.86       25.65       25.48       25.35       25.26       25.19       25.15    
        25.12       25.10       25.10       25.09       25.08       25.08       25.07       25.07       25.06       25.05    
        25.05       25.04       25.04       25.03       25.03       25.02       25.02       25.01       25.01       25.00    
   4    36.49       35.82       34.63       33.24       31.88       30.63       29.54       28.63       27.87       27.26    
        26.76       26.37       26.05       25.81       25.61       25.45       25.33       25.25       25.19       25.14    
        25.12       25.10       25.09       25.09       25.08       25.08       25.07       25.07       25.06       25.05    
        25.05       25.04       25.04       25.03       25.03       25.02       25.02       25.01       25.01       25.00    
   5    34.10       33.66       32.86       31.88       30.85       29.86       28.98       28.22       27.57       27.04    
        26.60       26.25       25.97       25.74       25.56       25.41       25.31       25.23       25.17       25.14    
        25.11       25.10       25.09       25.09       25.08       25.08       25.07       25.06       25.06       25.05    
        25.05       25.04       25.04       25.03       25.03       25.02       25.02       25.01       25.01       25.00    
   6    32.19       31.89       31.34       30.63       29.86       29.11       28.41       27.79       27.25       26.80    
        26.42       26.12       25.87       25.67       25.50       25.37       25.28       25.21       25.16       25.13    
        25.11       25.10       25.09       25.09       25.08       25.07       25.07       25.06       25.06       25.05    
        25.05       25.04       25.04       25.03       25.03       25.02       25.02       25.01       25.01       25.00    
   7    30.64       30.43       30.05       29.54       28.98       28.41       27.87       27.37       26.93       26.56    
        26.25       25.98       25.77       25.59       25.44       25.33       25.25       25.19       25.15       25.12    
        25.10       25.10       25.09       25.08       25.08       25.07       25.07       25.06       25.06       25.05    
        25.05       25.04       25.04       25.03       25.03       25.02       25.02       25.01       25.01       25.00    
   8    29.40       29.26       28.99       28.63       28.22       27.79       27.37       26.98       26.63       26.33    
        26.07       25.85       25.67       25.51       25.38       25.29       25.22       25.17       25.14       25.11    
        25.10       25.09       25.09       25.08       25.08       25.07       25.07       25.06       25.06       25.05    
        25.05       25.04       25.04       25.03       25.03       25.02       25.02       25.01       25.01       25.00    
   9    28.43       28.32       28.13       27.87       27.57       27.25       26.93       26.63       26.36       26.12    
        25.90       25.72       25.57       25.43       25.33       25.25       25.20       25.15       25.13       25.11    
        25.10       25.09       25.09       25.08       25.08       25.07       25.07       25.06       25.06       25.05    
        25.05       25.04       25.04       25.03       25.02       25.02       25.01       25.01       25.00       25.00    
  10    27.65       27.58       27.44       27.26       27.04       26.80       26.56       26.33       26.12       25.92    
        25.75       25.60       25.47       25.36       25.28       25.22       25.17       25.14       25.11       25.10    
        25.09       25.09       25.08       25.08       25.07       25.07       25.06       25.06       25.05       25.05    
        25.04       25.04       25.03       25.03       25.02       25.02       25.01       25.01       25.00       25.00    
  11    27.04       26.99       26.90       26.76       26.60       26.42       26.25       26.07       25.90       25.75    
        25.61       25.49       25.38       25.30       25.24       25.19       25.15       25.12       25.11       25.10    
        25.09       25.09       25.08       25.08       25.07       25.07       25.06       25.06       25.05       25.05    
        25.04       25.04       25.03       25.03       25.02       25.02       25.01       25.01       25.00       25.00    
  12    26.57       26.53       26.46       26.37       26.25       26.12       25.98       25.85       25.72       25.60    
        25.49       25.39       25.31       25.25       25.20       25.16       25.13       25.11       25.10       25.09    
        25.09       25.08       25.08       25.07       25.07       25.07       25.06       25.06       25.05       25.05    
        25.04       25.04       25.03       25.03       25.02       25.02       25.01       25.01       25.00       25.00    
  13    26.20       26.18       26.12       26.05       25.97       25.87       25.77       25.67       25.57       25.47    
        25.38       25.31       25.25       25.20       25.17       25.14       25.12       25.10       25.09       25.09    
        25.09       25.08       25.08       25.07       25.07       25.06       25.06       25.05       25.05       25.05    
        25.04       25.04       25.03       25.03       25.02       25.02       25.01       25.01       25.00       25.00    
  14    25.92       25.90       25.86       25.81       25.74       25.67       25.59       25.51       25.43       25.36    
        25.30       25.25       25.20       25.17       25.14       25.12       25.10       25.10       25.09       25.09    
        25.08       25.08       25.07       25.07       25.07       25.06       25.06       25.05       25.05       25.04    
        25.04       25.04       25.03       25.03       25.02       25.02       25.01       25.01       25.00       25.00    
  15    25.69       25.68       25.65       25.61       25.56       25.50       25.44       25.38       25.33       25.28    
        25.24       25.20       25.17       25.14       25.12       25.11       25.10       25.09       25.09       25.08    
        25.08       25.08       25.07       25.07       25.06       25.06       25.06       25.05       25.05       25.04    
        25.04       25.03       25.03       25.03       25.02       25.02       25.01       25.01       25.00       25.00    
  16    25.52       25.50       25.48       25.45       25.41       25.37       25.33       25.29       25.25       25.22    
        25.19       25.16       25.14       25.12       25.11       25.10       25.09       25.09       25.09       25.08    
        25.08       25.07       25.07       25.07       25.06       25.06       25.05       25.05       25.05       25.04    
        25.04       25.03       25.03       25.02       25.02       25.02       25.01       25.01       25.00       25.00    
  17    25.38       25.37       25.35       25.33       25.31       25.28       25.25       25.22       25.20       25.17    
        25.15       25.13       25.12       25.10       25.10       25.09       25.09       25.09       25.08       25.08    
        25.07       25.07       25.07       25.06       25.06       25.06       25.05       25.05       25.04       25.04    
        25.04       25.03       25.03       25.02       25.02       25.02       25.01       25.01       25.00       25.00    
  18    25.28       25.27       25.26       25.25       25.23       25.21       25.19       25.17       25.15       25.14    
        25.12       25.11       25.10       25.10       25.09       25.09       25.09       25.08       25.08       25.08    
        25.07       25.07       25.06       25.06       25.06       25.05       25.05       25.05       25.04       25.04    
        25.03       25.03       25.03       25.02       25.02       25.02       25.01       25.01       25.00       25.00    
  19    25.20       25.20       25.19       25.19       25.17       25.16       25.15       25.14       25.13       25.11    
        25.11       25.10       25.09       25.09       25.09       25.09       25.08       25.08       25.08       25.07    
        25.07       25.07       25.06       25.06       25.05       25.05       25.05       25.04       25.04       25.04    
        25.03       25.03       25.03       25.02       25.02       25.01       25.01       25.01       25.00       25.00    
  20    25.16       25.15       25.15       25.14       25.14       25.13       25.12       25.11       25.11       25.10    
        25.10       25.09       25.09       25.09       25.08       25.08       25.08       25.08       25.07       25.07    
        25.07       25.06       25.06       25.06       25.05       25.05       25.05       25.04       25.04       25.04    
        25.03       25.03       25.02       25.02       25.02       25.01       25.01       25.01       25.00       25.00    
  21    25.13       25.12       25.12       25.12       25.11       25.11       25.10       25.10       25.10       25.09    
        25.09       25.09       25.09       25.08       25.08       25.08       25.07       25.07       25.07       25.07    
        25.06       25.06       25.06       25.05       25.05       25.05       25.04       25.04       25.04       25.03    
        25.03       25.03       25.02       25.02       25.02       25.01       25.01       25.01       25.00       25.00    
  22    25.11       25.11       25.10       25.10       25.10       25.10       25.10       25.09       25.09       25.09    
        25.09       25.08       25.08       25.08       25.08       25.07       25.07       25.07       25.07       25.06    
        25.06       25.06       25.05       25.05       25.05       25.04       25.04       25.04       25.04       25.03    
        25.03       25.03       25.02       25.02       25.02       25.01       25.01       25.01       25.00       25.00    
  23    25.10       25.10       25.10       25.09       25.09       25.09       25.09       25.09       25.09       25.08    
        25.08       25.08       25.08       25.07       25.07       25.07       25.07       25.06       25.06       25.06    
        25.06       25.05       25.05       25.05       25.05       25.04       25.04       25.04       25.03       25.03    
        25.03       25.02       25.02       25.02       25.02       25.01       25.01       25.01       25.00       25.00    
  24    25.09       25.09       25.09       25.09       25.09       25.09       25.08       25.08       25.08       25.08    
        25.08       25.07       25.07       25.07       25.07       25.07       25.06       25.06       25.06       25.06    
        25.05       25.05       25.05       25.05       25.04       25.04       25.04       25.03       25.03       25.03    
        25.03       25.02       25.02       25.02       25.01       25.01       25.01       25.01       25.00       25.00    
  25    25.09       25.08       25.08       25.08       25.08       25.08       25.08       25.08       25.08       25.07    
        25.07       25.07       25.07       25.07       25.06       25.06       25.06       25.06       25.05       25.05    
        25.05       25.05       25.05       25.04       25.04       25.04       25.03       25.03       25.03       25.03    
        25.02       25.02       25.02       25.02       25.01       25.01       25.01       25.01       25.00       25.00    
  26    25.08       25.08       25.08       25.08       25.08       25.07       25.07       25.07       25.07       25.07    
        25.07       25.07       25.06       25.06       25.06       25.06       25.06       25.05       25.05       25.05    
        25.05       25.04       25.04       25.04       25.04       25.04       25.03       25.03       25.03       25.03    
        25.02       25.02       25.02       25.02       25.01       25.01       25.01       25.01       25.00       25.00    
  27    25.07       25.07       25.07       25.07       25.07       25.07       25.07       25.07       25.07       25.06    
        25.06       25.06       25.06       25.06       25.06       25.05       25.05       25.05       25.05       25.05    
        25.04       25.04       25.04       25.04       25.03       25.03       25.03       25.03       25.03       25.02    
        25.02       25.02       25.02       25.01       25.01       25.01       25.01       25.00       25.00       25.00    
  28    25.07       25.07       25.07       25.07       25.06       25.06       25.06       25.06       25.06       25.06    
        25.06       25.06       25.05       25.05       25.05       25.05       25.05       25.05       25.04       25.04    
        25.04       25.04       25.04       25.03       25.03       25.03       25.03       25.03       25.02       25.02    
        25.02       25.02       25.02       25.01       25.01       25.01       25.01       25.00       25.00       25.00    
  29    25.06       25.06       25.06       25.06       25.06       25.06       25.06       25.06       25.06       25.05    
        25.05       25.05       25.05       25.05       25.05       25.05       25.04       25.04       25.04       25.04    
        25.04       25.04       25.03       25.03       25.03       25.03       25.03       25.02       25.02       25.02    
        25.02       25.02       25.01       25.01       25.01       25.01       25.01       25.00       25.00       25.00    
  30    25.06       25.05       25.05       25.05       25.05       25.05       25.05       25.05       25.05       25.05    
        25.05       25.05       25.05       25.04       25.04       25.04       25.04       25.04       25.04       25.04    
        25.03       25.03       25.03       25.03       25.03       25.03       25.02       25.02       25.02       25.02    
        25.02       25.01       25.01       25.01       25.01       25.01       25.01       25.00       25.00       25.00    
  31    25.05       25.05       25.05       25.05       25.05       25.05       25.05       25.05       25.05       25.04    
        25.04       25.04       25.04       25.04       25.04       25.04       25.04       25.03       25.03       25.03    
        25.03       25.03       25.03       25.03       25.02       25.02       25.02       25.02       25.02       25.02    
        25.01       25.01       25.01       25.01       25.01       25.01       25.00       25.00       25.00       25.00    
  32    25.04       25.04       25.04       25.04       25.04       25.04       25.04       25.04       25.04       25.04    
        25.04       25.04       25.04       25.04       25.03       25.03       25.03       25.03       25.03       25.03    
        25.03       25.03       25.02       25.02       25.02       25.02       25.02       25.02       25.02       25.01    
        25.01       25.01       25.01       25.01       25.01       25.01       25.00       25.00       25.00       25.00    
  33    25.04       25.04       25.04       25.04       25.04       25.04       25.04       25.04       25.04       25.03    
        25.03       25.03       25.03       25.03       25.03       25.03       25.03       25.03       25.03       25.02    
        25.02       25.02       25.02       25.02       25.02       25.02       25.02       25.02       25.01       25.01    
        25.01       25.01       25.01       25.01       25.01       25.01       25.00       25.00       25.00       25.00    
  34    25.03       25.03       25.03       25.03       25.03       25.03       25.03       25.03       25.03       25.03    
        25.03       25.03       25.03       25.03       25.03       25.02       25.02       25.02       25.02       25.02    
        25.02       25.02       25.02       25.02       25.02       25.02       25.01       25.01       25.01       25.01    
        25.01       25.01       25.01       25.01       25.01       25.00       25.00       25.00       25.00       25.00    
  35    25.03       25.03       25.03       25.03       25.03       25.03       25.03       25.03       25.02       25.02    
        25.02       25.02       25.02       25.02       25.02       25.02       25.02       25.02       25.02       25.02    
        25.02       25.02       25.02       25.01       25.01       25.01       25.01       25.01       25.01       25.01    
        25.01       25.01       25.01       25.01       25.00       25.00       25.00       25.00       25.00       25.00    
  36    25.02       25.02       25.02       25.02       25.02       25.02       25.02       25.02       25.02       25.02    
        25.02       25.02       25.02       25.02       25.02       25.02       25.02       25.02       25.01       25.01    
        25.01       25.01       25.01       25.01       25.01       25.01       25.01       25.01       25.01       25.01    
        25.01       25.01       25.01       25.00       25.00       25.00       25.00       25.00       25.00       25.00    
  37    25.02       25.02       25.02       25.02       25.02       25.02       25.02       25.02       25.01       25.01    
        25.01       25.01       25.01       25.01       25.01       25.01       25.01       25.01       25.01       25.01    
        25.01       25.01       25.01       25.01       25.01       25.01       25.01       25.01       25.01       25.01    
        25.00       25.00       25.00       25.00       25.00       25.00       25.00       25.00       25.00       25.00    
  38    25.01       25.01       25.01       25.01       25.01       25.01       25.01       25.01       25.01       25.01    
        25.01       25.01       25.01       25.01       25.01       25.01       25.01       25.01       25.01       25.01    
        25.01       25.01       25.01       25.01       25.01       25.01       25.00       25.00       25.00       25.00    
        25.00       25.00       25.00       25.00       25.00       25.00       25.00       25.00       25.00       25.00    
  39    25.01       25.01       25.01       25.01       25.01       25.01       25.01       25.01       25.00       25.00    
        25.00       25.00       25.00       25.00       25.00       25.00       25.00       25.00       25.00       25.00    
        25.00       25.00       25.00       25.00       25.00       25.00       25.00       25.00       25.00       25.00    
        25.00       25.00       25.00       25.00       25.00       25.00       25.00       25.00       25.00       25.00    
  40    25.00       25.00       25.00       25.00       25.00       25.00       25.00       25.00       25.00       25.00    
        25.00       25.00       25.00       25.00       25.00       25.00       25.00       25.00       25.00       25.00    
        25.00       25.00       25.00       25.00       25.00       25.00       25.00       25.00       25.00       25.00    
        25.00       25.00       25.00       25.00       25.00       25.00       25.00       25.00       25.00       25.00    
1
  VOLUMETRIC BUDGET FOR ENTIRE MODEL AT END OF TIME STEP  2 IN STRESS PERIOD   2
  ------------------------------------------------------------------------------

     CUMULATIVE VOLUMES      L**3       RATES FOR THIS TIME STEP      L**3/T
     ------------------                 ------------------------

           IN:                                      IN:
           ---                                      ---
             STORAGE =        2968.9810               STORAGE =          11.4626
       CONSTANT HEAD =           0.1397         CONSTANT HEAD =           0.0000
            RECHARGE =     2212500.0000              RECHARGE =        3125.0000

            TOTAL IN =     2215469.0000              TOTAL IN =        3136.4626

          OUT:                                     OUT:
          ----                                     ----
             STORAGE =     2195138.2500               STORAGE =        3104.3860
       CONSTANT HEAD =       20331.8438         CONSTANT HEAD =          32.0695
            RECHARGE =           0.0000              RECHARGE =           0.0000

           TOTAL OUT =     2215470.0000             TOTAL OUT =        3136.4556

            IN - OUT =          -1.0000              IN - OUT =       7.0801E-03

 PERCENT DISCREPANCY =           0.00     PERCENT DISCREPANCY =           0.00






          TIME SUMMARY AT END OF TIME STEP   2 IN STRESS PERIOD    2
                    SECONDS     MINUTES      HOURS       DAYS        YEARS
                    -----------------------------------------------------------
   TIME STEP LENGTH 2.23776E+07 3.72960E+05  6216.0      259.00     0.70910    
 STRESS PERIOD TIME 4.47552E+07 7.45920E+05  12432.      518.00      1.4182    
         TOTAL TIME 6.11712E+07 1.01952E+06  16992.      708.00      1.9384    
1
1
                            STRESS PERIOD NO.    3, LENGTH =   1922.000    
                            -----------------------------------------------

                              NUMBER OF TIME STEPS =    17

                               MULTIPLIER FOR DELT =     1.000

                            INITIAL TIME STEP SIZE =   113.0588    

 REUSING RECH FROM LAST STRESS PERIOD
 
 SOLVING FOR HEAD 

 CELL CONVERSIONS FOR ITER.=  2  LAYER=  6  STEP=  1  PERIOD=   3   (ROW,COL)
    WET(  1,  3)   WET(  3,  1)   

 CELL CONVERSIONS FOR ITER.=  2  LAYER=  7  STEP=  1  PERIOD=   3   (ROW,COL)
    WET(  3,  4)   WET(  4,  3)   

 CELL CONVERSIONS FOR ITER.=  2  LAYER=  8  STEP=  1  PERIOD=   3   (ROW,COL)
    WET(  2,  7)   WET(  3,  7)   WET(  5,  6)   WET(  6,  5)   WET(  7,  2)   
    WET(  7,  3)   


     7 CALLS TO PCG ROUTINE FOR TIME STEP   1 IN STRESS PERIOD    3
    62 TOTAL ITERATIONS

 MAXIMUM HEAD CHANGE FOR EACH ITERATION (1 INDICATES THE FIRST INNER ITERATION):

    HEAD CHANGE    HEAD CHANGE    HEAD CHANGE    HEAD CHANGE    HEAD CHANGE 
   LAYER,ROW,COL  LAYER,ROW,COL  LAYER,ROW,COL  LAYER,ROW,COL  LAYER,ROW,COL
 ---------------------------------------------------------------------------
  1   1.071      0 -0.1730      0 -0.3555E-01  0  0.2935E-01  0  0.1165E-01
   (  6,  2,  2)  ( 12,  2,  7)  ( 14,  6,  3)  ( 14, 29,  3)  ( 14,  1, 25)
  0 -0.8120E-02  0 -0.3529E-02  0 -0.2100E-02  0  0.1167E-02  0  0.8027E-03
   ( 12,  2,  2)  ( 14, 25,  1)  ( 14, 20, 30)  ( 13,  1, 25)  ( 14,  1, 25)
  0  0.5125E-03  0  0.3704E-03  0  0.4378E-03  0  0.1407E-03  0  0.6799E-04
   ( 13,  3,  1)  ( 12,  2,  2)  ( 12,  2,  2)  ( 12,  1,  1)  ( 12, 25,  1)
  1  0.6540      0  0.2045      0  0.6465E-01  0  0.9784E-02  0  0.1964E-01
   (  8,  7,  2)  ( 14,  2,  2)  ( 14,  1,  1)  ( 11,  2,  2)  ( 10,  2,  2)
  0  0.3184E-02  0  0.2941E-02  0  0.9424E-03  0  0.1082E-02  0  0.2903E-03
   ( 12,  3,  3)  ( 14,  4,  4)  ( 12,  4,  4)  ( 14,  1,  8)  ( 14, 23, 32)
  0  0.2764E-03  0 -0.1121E-03  0  0.7992E-04  1 -0.6365E-01  0 -0.4371E-01
   ( 13,  3,  8)  ( 14, 37,  4)  ( 14,  1, 10)  (  6,  2,  1)  (  6,  1,  2)
  0 -0.1610E-01  0  0.3980E-02  0  0.8719E-02  0 -0.1244E-02  0 -0.2203E-02
   (  5,  2,  2)  ( 14,  1,  1)  ( 14,  1,  1)  ( 14, 34, 34)  (  7,  1,  1)
  0 -0.5382E-03  0 -0.4171E-03  0 -0.2656E-03  0 -0.1541E-03  0 -0.1692E-03
   ( 14,  2,  2)  ( 14,  2,  2)  ( 14,  2,  2)  ( 14,  1,  1)  ( 14,  1,  1)
  0  0.3365E-04  1 -0.1057E-01  0 -0.7328E-02  0 -0.1823E-02  0  0.1430E-02
   ( 14, 33, 20)  (  6,  2,  1)  (  6,  1,  2)  (  5,  2,  2)  ( 14,  1,  1)
  0  0.1264E-02  0  0.5792E-03  0 -0.4136E-03  0 -0.2731E-03  0 -0.5117E-04
   ( 14,  1,  1)  ( 14,  1,  1)  (  7,  1,  1)  (  7,  1,  1)  ( 14,  2,  2)
  1 -0.1844E-02  0 -0.1133E-02  0 -0.2335E-03  0  0.3697E-03  0  0.1584E-03
   (  6,  1,  2)  (  6,  2,  1)  (  6,  1,  2)  ( 14,  1,  1)  ( 14,  1,  1)
  0  0.1755E-03  0  0.6413E-04  1 -0.2745E-03  0 -0.1013E-03  0 -0.1408E-03
   ( 14,  1,  1)  (  9,  2,  2)  (  6,  1,  2)  (  6,  1,  2)  (  6,  2,  1)
  0  0.3628E-04  1  0.3287E-04
   ( 14,  2,  1)  ( 14,  1,  1)

 MAXIMUM RESIDUAL FOR EACH ITERATION (1 INDICATES THE FIRST INNER ITERATION):

    RESIDUAL       RESIDUAL       RESIDUAL       RESIDUAL       RESIDUAL    
   LAYER,ROW,COL  LAYER,ROW,COL  LAYER,ROW,COL  LAYER,ROW,COL  LAYER,ROW,COL
 ---------------------------------------------------------------------------
  1   16.43      0  -3.538      0   1.715      0   1.013      0  0.5537    
   ( 10,  2,  7)  (  9,  5,  6)  ( 14,  2,  6)  ( 14,  2,  6)  ( 14,  9, 13)
  0 -0.3609      0 -0.2146      0  0.1300      0  0.1093      0 -0.4376E-01
   (  9,  2,  2)  (  9,  2,  2)  ( 14,  2,  2)  ( 13,  2,  2)  ( 13,  6,  3)
  0 -0.4590E-01  0 -0.3146E-01  0  0.1126E-01  0  0.1057E-01  0  0.6528E-02
   (  9,  2,  2)  (  9,  2,  2)  (  9,  6,  3)  ( 14,  2,  2)  ( 14,  2,  2)
  1  -30.22      0   4.250      0   2.181      0   1.748      0  0.9887    
   (  8,  2,  7)  (  7,  1,  3)  (  7,  1,  3)  (  7,  1,  3)  (  7,  1,  3)
  0  0.7360      0  0.4718      0  0.3487      0  0.2021      0  0.1551    
   (  7,  1,  3)  (  7,  1,  3)  (  7,  1,  3)  (  7,  1,  3)  (  7,  1,  3)
  0  0.9488E-01  0  0.6682E-01  0  0.4142E-01  1  -18.38      0  -5.202    
   (  7,  1,  3)  (  7,  1,  3)  (  7,  1,  3)  (  6,  1,  3)  (  6,  1,  3)
  0  -2.564      0  -2.047      0 -0.8405      0 -0.4936      0  0.1978    
   (  6,  1,  3)  (  6,  1,  3)  (  6,  1,  3)  (  6,  1,  3)  (  7,  1,  3)
  0  0.1481      0  0.1043      0  0.6676E-01  0  0.4786E-01  0  0.2834E-01
   (  7,  1,  3)  (  7,  1,  3)  (  7,  1,  3)  (  7,  1,  3)  (  7,  3,  1)
  0 -0.2042E-01  1  -3.135      0 -0.9165      0 -0.5534      0 -0.3639    
   (  9,  1,  1)  (  6,  1,  3)  (  6,  1,  3)  (  6,  1,  3)  (  6,  1,  3)
  0 -0.2045      0  0.1001      0  0.4639E-01  0  0.2646E-01  0  0.2108E-01
   (  6,  1,  3)  (  7,  1,  1)  (  7,  1,  1)  (  7,  1,  3)  (  7,  1,  3)
  1 -0.5374      0 -0.2282      0 -0.1235      0 -0.6878E-01  0 -0.5085E-01
   (  6,  1,  3)  (  6,  1,  3)  (  6,  3,  1)  (  6,  3,  1)  (  6,  3,  1)
  0 -0.2655E-01  0  0.1385E-01  1 -0.9456E-01  0 -0.7353E-01  0 -0.2732E-01
   (  6,  3,  1)  (  7,  1,  1)  (  6,  1,  3)  (  6,  1,  3)  (  6,  1,  3)
  0 -0.1560E-01  1 -0.2690E-01
   (  6,  1,  3)  (  6,  1,  3)



 OUTPUT CONTROL WAS SPECIFIED FOR A NONEXISTENT TIME STEP
 OR OUTPUT CONTROL DATA ARE NOT ENTERED IN ASCENDING ORDER
 OUTPUT CONTROL STRESS PERIOD    2   TIME STEP  10
 MODEL STRESS PERIOD    3   TIME STEP   1
 APPLYING THE SPECIFIED OUTPUT CONTROL TO THE CURRENT TIME STEP

 OUTPUT CONTROL FOR STRESS PERIOD    3   TIME STEP   1
    SAVE BUDGET
    PRINT HEAD FOR ALL LAYERS
 UBDSV1 SAVING "         STORAGE" ON UNIT  32 AT TIME STEP  1, STRESS PERIOD   3
 UBDSV2 SAVING "   CONSTANT HEAD" ON UNIT  32 AT TIME STEP  1, STRESS PERIOD   3
 UBDSV1 SAVING "FLOW RIGHT FACE " ON UNIT  32 AT TIME STEP  1, STRESS PERIOD   3
 UBDSV1 SAVING "FLOW FRONT FACE " ON UNIT  32 AT TIME STEP  1, STRESS PERIOD   3
 UBDSV1 SAVING "FLOW LOWER FACE " ON UNIT  32 AT TIME STEP  1, STRESS PERIOD   3
 UBDSV3 SAVING "        RECHARGE" ON UNIT  32 AT TIME STEP  1, STRESS PERIOD   3
1
              HEAD IN LAYER   1 AT END OF TIME STEP   1 IN STRESS PERIOD    3
  ---------------------------------------------------------------------------

            1           2           3           4           5           6           7           8           9          10
           11          12          13          14          15          16          17          18          19          20
           21          22          23          24          25          26          27          28          29          30
           31          32          33          34          35          36          37          38          39          40
 ........................................................................................................................
   1   -99.90      -99.90      -99.90      -99.90      -99.90      -99.90      -99.90      -99.90      -99.90      -99.90    
       -99.90      -99.90      -99.90      -99.90      -99.90      -99.90      -99.90      -99.90      -99.90      -99.90    
       -99.90      -99.90      -99.90      -99.90      -99.90      -99.90      -99.90      -99.90      -99.90      -99.90    
       -99.90      -99.90      -99.90      -99.90      -99.90      -99.90      -99.90      -99.90      -99.90      -99.90    
   2   -99.90      -99.90      -99.90      -99.90      -99.90      -99.90      -99.90      -99.90      -99.90      -99.90    
       -99.90      -99.90      -99.90      -99.90      -99.90      -99.90      -99.90      -99.90      -99.90      -99.90    
       -99.90      -99.90      -99.90      -99.90      -99.90      -99.90      -99.90      -99.90      -99.90      -99.90    
       -99.90      -99.90      -99.90      -99.90      -99.90      -99.90      -99.90      -99.90      -99.90      -99.90    
   3   -99.90      -99.90      -99.90      -99.90      -99.90      -99.90      -99.90      -99.90      -99.90      -99.90    
       -99.90      -99.90      -99.90      -99.90      -99.90      -99.90      -99.90      -99.90      -99.90      -99.90    
       -99.90      -99.90      -99.90      -99.90      -99.90      -99.90      -99.90      -99.90      -99.90      -99.90    
       -99.90      -99.90      -99.90      -99.90      -99.90      -99.90      -99.90      -99.90      -99.90      -99.90    
   4   -99.90      -99.90      -99.90      -99.90      -99.90      -99.90      -99.90      -99.90      -99.90      -99.90    
       -99.90      -99.90      -99.90      -99.90      -99.90      -99.90      -99.90      -99.90      -99.90      -99.90    
       -99.90      -99.90      -99.90      -99.90      -99.90      -99.90      -99.90      -99.90      -99.90      -99.90    
       -99.90      -99.90      -99.90      -99.90      -99.90      -99.90      -99.90      -99.90      -99.90      -99.90    
   5   -99.90      -99.90      -99.90      -99.90      -99.90      -99.90      -99.90      -99.90      -99.90      -99.90    
       -99.90      -99.90      -99.90      -99.90      -99.90      -99.90      -99.90      -99.90      -99.90      -99.90    
       -99.90      -99.90      -99.90      -99.90      -99.90      -99.90      -99.90      -99.90      -99.90      -99.90    
       -99.90      -99.90      -99.90      -99.90      -99.90      -99.90      -99.90      -99.90      -99.90      -99.90    
   6   -99.90      -99.90      -99.90      -99.90      -99.90      -99.90      -99.90      -99.90      -99.90      -99.90    
       -99.90      -99.90      -99.90      -99.90      -99.90      -99.90      -99.90      -99.90      -99.90      -99.90    
       -99.90      -99.90      -99.90      -99.90      -99.90      -99.90      -99.90      -99.90      -99.90      -99.90    
       -99.90      -99.90      -99.90      -99.90      -99.90      -99.90      -99.90      -99.90      -99.90      -99.90    
   7   -99.90      -99.90      -99.90      -99.90      -99.90      -99.90      -99.90      -99.90      -99.90      -99.90    
       -99.90      -99.90      -99.90      -99.90      -99.90      -99.90      -99.90      -99.90      -99.90      -99.90    
       -99.90      -99.90      -99.90      -99.90      -99.90      -99.90      -99.90      -99.90      -99.90      -99.90    
       -99.90      -99.90      -99.90      -99.90      -99.90      -99.90      -99.90      -99.90      -99.90      -99.90    
   8   -99.90      -99.90      -99.90      -99.90      -99.90      -99.90      -99.90      -99.90      -99.90      -99.90    
       -99.90      -99.90      -99.90      -99.90      -99.90      -99.90      -99.90      -99.90      -99.90      -99.90    
       -99.90      -99.90      -99.90      -99.90      -99.90      -99.90      -99.90      -99.90      -99.90      -99.90    
       -99.90      -99.90      -99.90      -99.90      -99.90      -99.90      -99.90      -99.90      -99.90      -99.90    
   9   -99.90      -99.90      -99.90      -99.90      -99.90      -99.90      -99.90      -99.90      -99.90      -99.90    
       -99.90      -99.90      -99.90      -99.90      -99.90      -99.90      -99.90      -99.90      -99.90      -99.90    
       -99.90      -99.90      -99.90      -99.90      -99.90      -99.90      -99.90      -99.90      -99.90      -99.90    
       -99.90      -99.90      -99.90      -99.90      -99.90      -99.90      -99.90      -99.90      -99.90      -99.90    
  10   -99.90      -99.90      -99.90      -99.90      -99.90      -99.90      -99.90      -99.90      -99.90      -99.90    
       -99.90      -99.90      -99.90      -99.90      -99.90      -99.90      -99.90      -99.90      -99.90      -99.90    
       -99.90      -99.90      -99.90      -99.90      -99.90      -99.90      -99.90      -99.90      -99.90      -99.90    
       -99.90      -99.90      -99.90      -99.90      -99.90      -99.90      -99.90      -99.90      -99.90      -99.90    
  11   -99.90      -99.90      -99.90      -99.90      -99.90      -99.90      -99.90      -99.90      -99.90      -99.90    
       -99.90      -99.90      -99.90      -99.90      -99.90      -99.90      -99.90      -99.90      -99.90      -99.90    
       -99.90      -99.90      -99.90      -99.90      -99.90      -99.90      -99.90      -99.90      -99.90      -99.90    
       -99.90      -99.90      -99.90      -99.90      -99.90      -99.90      -99.90      -99.90      -99.90      -99.90    
  12   -99.90      -99.90      -99.90      -99.90      -99.90      -99.90      -99.90      -99.90      -99.90      -99.90    
       -99.90      -99.90      -99.90      -99.90      -99.90      -99.90      -99.90      -99.90      -99.90      -99.90    
       -99.90      -99.90      -99.90      -99.90      -99.90      -99.90      -99.90      -99.90      -99.90      -99.90    
       -99.90      -99.90      -99.90      -99.90      -99.90      -99.90      -99.90      -99.90      -99.90      -99.90    
  13   -99.90      -99.90      -99.90      -99.90      -99.90      -99.90      -99.90      -99.90      -99.90      -99.90    
       -99.90      -99.90      -99.90      -99.90      -99.90      -99.90      -99.90      -99.90      -99.90      -99.90    
       -99.90      -99.90      -99.90      -99.90      -99.90      -99.90      -99.90      -99.90      -99.90      -99.90    
       -99.90      -99.90      -99.90      -99.90      -99.90      -99.90      -99.90      -99.90      -99.90      -99.90    
  14   -99.90      -99.90      -99.90      -99.90      -99.90      -99.90      -99.90      -99.90      -99.90      -99.90    
       -99.90      -99.90      -99.90      -99.90      -99.90      -99.90      -99.90      -99.90      -99.90      -99.90    
       -99.90      -99.90      -99.90      -99.90      -99.90      -99.90      -99.90      -99.90      -99.90      -99.90    
       -99.90      -99.90      -99.90      -99.90      -99.90      -99.90      -99.90      -99.90      -99.90      -99.90    
  15   -99.90      -99.90      -99.90      -99.90      -99.90      -99.90      -99.90      -99.90      -99.90      -99.90    
       -99.90      -99.90      -99.90      -99.90      -99.90      -99.90      -99.90      -99.90      -99.90      -99.90    
       -99.90      -99.90      -99.90      -99.90      -99.90      -99.90      -99.90      -99.90      -99.90      -99.90    
       -99.90      -99.90      -99.90      -99.90      -99.90      -99.90      -99.90      -99.90      -99.90      -99.90    
  16   -99.90      -99.90      -99.90      -99.90      -99.90      -99.90      -99.90      -99.90      -99.90      -99.90    
       -99.90      -99.90      -99.90      -99.90      -99.90      -99.90      -99.90      -99.90      -99.90      -99.90    
       -99.90      -99.90      -99.90      -99.90      -99.90      -99.90      -99.90      -99.90      -99.90      -99.90    
       -99.90      -99.90      -99.90      -99.90      -99.90      -99.90      -99.90      -99.90      -99.90      -99.90    
  17   -99.90      -99.90      -99.90      -99.90      -99.90      -99.90      -99.90      -99.90      -99.90      -99.90    
       -99.90      -99.90      -99.90      -99.90      -99.90      -99.90      -99.90      -99.90      -99.90      -99.90    
       -99.90      -99.90      -99.90      -99.90      -99.90      -99.90      -99.90      -99.90      -99.90      -99.90    
       -99.90      -99.90      -99.90      -99.90      -99.90      -99.90      -99.90      -99.90      -99.90      -99.90    
  18   -99.90      -99.90      -99.90      -99.90      -99.90      -99.90      -99.90      -99.90      -99.90      -99.90    
       -99.90      -99.90      -99.90      -99.90      -99.90      -99.90      -99.90      -99.90      -99.90      -99.90    
       -99.90      -99.90      -99.90      -99.90      -99.90      -99.90      -99.90      -99.90      -99.90      -99.90    
       -99.90      -99.90      -99.90      -99.90      -99.90      -99.90      -99.90      -99.90      -99.90      -99.90    
  19   -99.90      -99.90      -99.90      -99.90      -99.90      -99.90      -99.90      -99.90      -99.90      -99.90    
       -99.90      -99.90      -99.90      -99.90      -99.90      -99.90      -99.90      -99.90      -99.90      -99.90    
       -99.90      -99.90      -99.90      -99.90      -99.90      -99.90      -99.90      -99.90      -99.90      -99.90    
       -99.90      -99.90      -99.90      -99.90      -99.90      -99.90      -99.90      -99.90      -99.90      -99.90    
  20   -99.90      -99.90      -99.90      -99.90      -99.90      -99.90      -99.90      -99.90      -99.90      -99.90    
       -99.90      -99.90      -99.90      -99.90      -99.90      -99.90      -99.90      -99.90      -99.90      -99.90    
       -99.90      -99.90      -99.90      -99.90      -99.90      -99.90      -99.90      -99.90      -99.90      -99.90    
       -99.90      -99.90      -99.90      -99.90      -99.90      -99.90      -99.90      -99.90      -99.90      -99.90    
  21   -99.90      -99.90      -99.90      -99.90      -99.90      -99.90      -99.90      -99.90      -99.90      -99.90    
       -99.90      -99.90      -99.90      -99.90      -99.90      -99.90      -99.90      -99.90      -99.90      -99.90    
       -99.90      -99.90      -99.90      -99.90      -99.90      -99.90      -99.90      -99.90      -99.90      -99.90    
       -99.90      -99.90      -99.90      -99.90      -99.90      -99.90      -99.90      -99.90      -99.90      -99.90    
  22   -99.90      -99.90      -99.90      -99.90      -99.90      -99.90      -99.90      -99.90      -99.90      -99.90    
       -99.90      -99.90      -99.90      -99.90      -99.90      -99.90      -99.90      -99.90      -99.90      -99.90    
       -99.90      -99.90      -99.90      -99.90      -99.90      -99.90      -99.90      -99.90      -99.90      -99.90    
       -99.90      -99.90      -99.90      -99.90      -99.90      -99.90      -99.90      -99.90      -99.90      -99.90    
  23   -99.90      -99.90      -99.90      -99.90      -99.90      -99.90      -99.90      -99.90      -99.90      -99.90    
       -99.90      -99.90      -99.90      -99.90      -99.90      -99.90      -99.90      -99.90      -99.90      -99.90    
       -99.90      -99.90      -99.90      -99.90      -99.90      -99.90      -99.90      -99.90      -99.90      -99.90    
       -99.90      -99.90      -99.90      -99.90      -99.90      -99.90      -99.90      -99.90      -99.90      -99.90    
  24   -99.90      -99.90      -99.90      -99.90      -99.90      -99.90      -99.90      -99.90      -99.90      -99.90    
       -99.90      -99.90      -99.90      -99.90      -99.90      -99.90      -99.90      -99.90      -99.90      -99.90    
       -99.90      -99.90      -99.90      -99.90      -99.90      -99.90      -99.90      -99.90      -99.90      -99.90    
       -99.90      -99.90      -99.90      -99.90      -99.90      -99.90      -99.90      -99.90      -99.90      -99.90    
  25   -99.90      -99.90      -99.90      -99.90      -99.90      -99.90      -99.90      -99.90      -99.90      -99.90    
       -99.90      -99.90      -99.90      -99.90      -99.90      -99.90      -99.90      -99.90      -99.90      -99.90    
       -99.90      -99.90      -99.90      -99.90      -99.90      -99.90      -99.90      -99.90      -99.90      -99.90    
       -99.90      -99.90      -99.90      -99.90      -99.90      -99.90      -99.90      -99.90      -99.90      -99.90    
  26   -99.90      -99.90      -99.90      -99.90      -99.90      -99.90      -99.90      -99.90      -99.90      -99.90    
       -99.90      -99.90      -99.90      -99.90      -99.90      -99.90      -99.90      -99.90      -99.90      -99.90    
       -99.90      -99.90      -99.90      -99.90      -99.90      -99.90      -99.90      -99.90      -99.90      -99.90    
       -99.90      -99.90      -99.90      -99.90      -99.90      -99.90      -99.90      -99.90      -99.90      -99.90    
  27   -99.90      -99.90      -99.90      -99.90      -99.90      -99.90      -99.90      -99.90      -99.90      -99.90    
       -99.90      -99.90      -99.90      -99.90      -99.90      -99.90      -99.90      -99.90      -99.90      -99.90    
       -99.90      -99.90      -99.90      -99.90      -99.90      -99.90      -99.90      -99.90      -99.90      -99.90    
       -99.90      -99.90      -99.90      -99.90      -99.90      -99.90      -99.90      -99.90      -99.90      -99.90    
  28   -99.90      -99.90      -99.90      -99.90      -99.90      -99.90      -99.90      -99.90      -99.90      -99.90    
       -99.90      -99.90      -99.90      -99.90      -99.90      -99.90      -99.90      -99.90      -99.90      -99.90    
       -99.90      -99.90      -99.90      -99.90      -99.90      -99.90      -99.90      -99.90      -99.90      -99.90    
       -99.90      -99.90      -99.90      -99.90      -99.90      -99.90      -99.90      -99.90      -99.90      -99.90    
  29   -99.90      -99.90      -99.90      -99.90      -99.90      -99.90      -99.90      -99.90      -99.90      -99.90    
       -99.90      -99.90      -99.90      -99.90      -99.90      -99.90      -99.90      -99.90      -99.90      -99.90    
       -99.90      -99.90      -99.90      -99.90      -99.90      -99.90      -99.90      -99.90      -99.90      -99.90    
       -99.90      -99.90      -99.90      -99.90      -99.90      -99.90      -99.90      -99.90      -99.90      -99.90    
  30   -99.90      -99.90      -99.90      -99.90      -99.90      -99.90      -99.90      -99.90      -99.90      -99.90    
       -99.90      -99.90      -99.90      -99.90      -99.90      -99.90      -99.90      -99.90      -99.90      -99.90    
       -99.90      -99.90      -99.90      -99.90      -99.90      -99.90      -99.90      -99.90      -99.90      -99.90    
       -99.90      -99.90      -99.90      -99.90      -99.90      -99.90      -99.90      -99.90      -99.90      -99.90    
  31   -99.90      -99.90      -99.90      -99.90      -99.90      -99.90      -99.90      -99.90      -99.90      -99.90    
       -99.90      -99.90      -99.90      -99.90      -99.90      -99.90      -99.90      -99.90      -99.90      -99.90    
       -99.90      -99.90      -99.90      -99.90      -99.90      -99.90      -99.90      -99.90      -99.90      -99.90    
       -99.90      -99.90      -99.90      -99.90      -99.90      -99.90      -99.90      -99.90      -99.90      -99.90    
  32   -99.90      -99.90      -99.90      -99.90      -99.90      -99.90      -99.90      -99.90      -99.90      -99.90    
       -99.90      -99.90      -99.90      -99.90      -99.90      -99.90      -99.90      -99.90      -99.90      -99.90    
       -99.90      -99.90      -99.90      -99.90      -99.90      -99.90      -99.90      -99.90      -99.90      -99.90    
       -99.90      -99.90      -99.90      -99.90      -99.90      -99.90      -99.90      -99.90      -99.90      -99.90    
  33   -99.90      -99.90      -99.90      -99.90      -99.90      -99.90      -99.90      -99.90      -99.90      -99.90    
       -99.90      -99.90      -99.90      -99.90      -99.90      -99.90      -99.90      -99.90      -99.90      -99.90    
       -99.90      -99.90      -99.90      -99.90      -99.90      -99.90      -99.90      -99.90      -99.90      -99.90    
       -99.90      -99.90      -99.90      -99.90      -99.90      -99.90      -99.90      -99.90      -99.90      -99.90    
  34   -99.90      -99.90      -99.90      -99.90      -99.90      -99.90      -99.90      -99.90      -99.90      -99.90    
       -99.90      -99.90      -99.90      -99.90      -99.90      -99.90      -99.90      -99.90      -99.90      -99.90    
       -99.90      -99.90      -99.90      -99.90      -99.90      -99.90      -99.90      -99.90      -99.90      -99.90    
       -99.90      -99.90      -99.90      -99.90      -99.90      -99.90      -99.90      -99.90      -99.90      -99.90    
  35   -99.90      -99.90      -99.90      -99.90      -99.90      -99.90      -99.90      -99.90      -99.90      -99.90    
       -99.90      -99.90      -99.90      -99.90      -99.90      -99.90      -99.90      -99.90      -99.90      -99.90    
       -99.90      -99.90      -99.90      -99.90      -99.90      -99.90      -99.90      -99.90      -99.90      -99.90    
       -99.90      -99.90      -99.90      -99.90      -99.90      -99.90      -99.90      -99.90      -99.90      -99.90    
  36   -99.90      -99.90      -99.90      -99.90      -99.90      -99.90      -99.90      -99.90      -99.90      -99.90    
       -99.90      -99.90      -99.90      -99.90      -99.90      -99.90      -99.90      -99.90      -99.90      -99.90    
       -99.90      -99.90      -99.90      -99.90      -99.90      -99.90      -99.90      -99.90      -99.90      -99.90    
       -99.90      -99.90      -99.90      -99.90      -99.90      -99.90      -99.90      -99.90      -99.90      -99.90    
  37   -99.90      -99.90      -99.90      -99.90      -99.90      -99.90      -99.90      -99.90      -99.90      -99.90    
       -99.90      -99.90      -99.90      -99.90      -99.90      -99.90      -99.90      -99.90      -99.90      -99.90    
       -99.90      -99.90      -99.90      -99.90      -99.90      -99.90      -99.90      -99.90      -99.90      -99.90    
       -99.90      -99.90      -99.90      -99.90      -99.90      -99.90      -99.90      -99.90      -99.90      -99.90    
  38   -99.90      -99.90      -99.90      -99.90      -99.90      -99.90      -99.90      -99.90      -99.90      -99.90    
       -99.90      -99.90      -99.90      -99.90      -99.90      -99.90      -99.90      -99.90      -99.90      -99.90    
       -99.90      -99.90      -99.90      -99.90      -99.90      -99.90      -99.90      -99.90      -99.90      -99.90    
       -99.90      -99.90      -99.90      -99.90      -99.90      -99.90      -99.90      -99.90      -99.90      -99.90    
  39   -99.90      -99.90      -99.90      -99.90      -99.90      -99.90      -99.90      -99.90      -99.90      -99.90    
       -99.90      -99.90      -99.90      -99.90      -99.90      -99.90      -99.90      -99.90      -99.90      -99.90    
       -99.90      -99.90      -99.90      -99.90      -99.90      -99.90      -99.90      -99.90      -99.90      -99.90    
       -99.90      -99.90      -99.90      -99.90      -99.90      -99.90      -99.90      -99.90      -99.90      -99.90    
  40   -99.90      -99.90      -99.90      -99.90      -99.90      -99.90      -99.90      -99.90      -99.90      -99.90    
       -99.90      -99.90      -99.90      -99.90      -99.90      -99.90      -99.90      -99.90      -99.90      -99.90    
       -99.90      -99.90      -99.90      -99.90      -99.90      -99.90      -99.90      -99.90      -99.90      -99.90    
       -99.90      -99.90      -99.90      -99.90      -99.90      -99.90      -99.90      -99.90      -99.90      -99.90    
1
              HEAD IN LAYER   2 AT END OF TIME STEP   1 IN STRESS PERIOD    3
  ---------------------------------------------------------------------------

            1           2           3           4           5           6           7           8           9          10
           11          12          13          14          15          16          17          18          19          20
           21          22          23          24          25          26          27          28          29          30
           31          32          33          34          35          36          37          38          39          40
 ........................................................................................................................
   1   -99.90      -99.90      -99.90      -99.90      -99.90      -99.90      -99.90      -99.90      -99.90      -99.90    
       -99.90      -99.90      -99.90      -99.90      -99.90      -99.90      -99.90      -99.90      -99.90      -99.90    
       -99.90      -99.90      -99.90      -99.90      -99.90      -99.90      -99.90      -99.90      -99.90      -99.90    
       -99.90      -99.90      -99.90      -99.90      -99.90      -99.90      -99.90      -99.90      -99.90      -99.90    
   2   -99.90      -99.90      -99.90      -99.90      -99.90      -99.90      -99.90      -99.90      -99.90      -99.90    
       -99.90      -99.90      -99.90      -99.90      -99.90      -99.90      -99.90      -99.90      -99.90      -99.90    
       -99.90      -99.90      -99.90      -99.90      -99.90      -99.90      -99.90      -99.90      -99.90      -99.90    
       -99.90      -99.90      -99.90      -99.90      -99.90      -99.90      -99.90      -99.90      -99.90      -99.90    
   3   -99.90      -99.90      -99.90      -99.90      -99.90      -99.90      -99.90      -99.90      -99.90      -99.90    
       -99.90      -99.90      -99.90      -99.90      -99.90      -99.90      -99.90      -99.90      -99.90      -99.90    
       -99.90      -99.90      -99.90      -99.90      -99.90      -99.90      -99.90      -99.90      -99.90      -99.90    
       -99.90      -99.90      -99.90      -99.90      -99.90      -99.90      -99.90      -99.90      -99.90      -99.90    
   4   -99.90      -99.90      -99.90      -99.90      -99.90      -99.90      -99.90      -99.90      -99.90      -99.90    
       -99.90      -99.90      -99.90      -99.90      -99.90      -99.90      -99.90      -99.90      -99.90      -99.90    
       -99.90      -99.90      -99.90      -99.90      -99.90      -99.90      -99.90      -99.90      -99.90      -99.90    
       -99.90      -99.90      -99.90      -99.90      -99.90      -99.90      -99.90      -99.90      -99.90      -99.90    
   5   -99.90      -99.90      -99.90      -99.90      -99.90      -99.90      -99.90      -99.90      -99.90      -99.90    
       -99.90      -99.90      -99.90      -99.90      -99.90      -99.90      -99.90      -99.90      -99.90      -99.90    
       -99.90      -99.90      -99.90      -99.90      -99.90      -99.90      -99.90      -99.90      -99.90      -99.90    
       -99.90      -99.90      -99.90      -99.90      -99.90      -99.90      -99.90      -99.90      -99.90      -99.90    
   6   -99.90      -99.90      -99.90      -99.90      -99.90      -99.90      -99.90      -99.90      -99.90      -99.90    
       -99.90      -99.90      -99.90      -99.90      -99.90      -99.90      -99.90      -99.90      -99.90      -99.90    
       -99.90      -99.90      -99.90      -99.90      -99.90      -99.90      -99.90      -99.90      -99.90      -99.90    
       -99.90      -99.90      -99.90      -99.90      -99.90      -99.90      -99.90      -99.90      -99.90      -99.90    
   7   -99.90      -99.90      -99.90      -99.90      -99.90      -99.90      -99.90      -99.90      -99.90      -99.90    
       -99.90      -99.90      -99.90      -99.90      -99.90      -99.90      -99.90      -99.90      -99.90      -99.90    
       -99.90      -99.90      -99.90      -99.90      -99.90      -99.90      -99.90      -99.90      -99.90      -99.90    
       -99.90      -99.90      -99.90      -99.90      -99.90      -99.90      -99.90      -99.90      -99.90      -99.90    
   8   -99.90      -99.90      -99.90      -99.90      -99.90      -99.90      -99.90      -99.90      -99.90      -99.90    
       -99.90      -99.90      -99.90      -99.90      -99.90      -99.90      -99.90      -99.90      -99.90      -99.90    
       -99.90      -99.90      -99.90      -99.90      -99.90      -99.90      -99.90      -99.90      -99.90      -99.90    
       -99.90      -99.90      -99.90      -99.90      -99.90      -99.90      -99.90      -99.90      -99.90      -99.90    
   9   -99.90      -99.90      -99.90      -99.90      -99.90      -99.90      -99.90      -99.90      -99.90      -99.90    
       -99.90      -99.90      -99.90      -99.90      -99.90      -99.90      -99.90      -99.90      -99.90      -99.90    
       -99.90      -99.90      -99.90      -99.90      -99.90      -99.90      -99.90      -99.90      -99.90      -99.90    
       -99.90      -99.90      -99.90      -99.90      -99.90      -99.90      -99.90      -99.90      -99.90      -99.90    
  10   -99.90      -99.90      -99.90      -99.90      -99.90      -99.90      -99.90      -99.90      -99.90      -99.90    
       -99.90      -99.90      -99.90      -99.90      -99.90      -99.90      -99.90      -99.90      -99.90      -99.90    
       -99.90      -99.90      -99.90      -99.90      -99.90      -99.90      -99.90      -99.90      -99.90      -99.90    
       -99.90      -99.90      -99.90      -99.90      -99.90      -99.90      -99.90      -99.90      -99.90      -99.90    
  11   -99.90      -99.90      -99.90      -99.90      -99.90      -99.90      -99.90      -99.90      -99.90      -99.90    
       -99.90      -99.90      -99.90      -99.90      -99.90      -99.90      -99.90      -99.90      -99.90      -99.90    
       -99.90      -99.90      -99.90      -99.90      -99.90      -99.90      -99.90      -99.90      -99.90      -99.90    
       -99.90      -99.90      -99.90      -99.90      -99.90      -99.90      -99.90      -99.90      -99.90      -99.90    
  12   -99.90      -99.90      -99.90      -99.90      -99.90      -99.90      -99.90      -99.90      -99.90      -99.90    
       -99.90      -99.90      -99.90      -99.90      -99.90      -99.90      -99.90      -99.90      -99.90      -99.90    
       -99.90      -99.90      -99.90      -99.90      -99.90      -99.90      -99.90      -99.90      -99.90      -99.90    
       -99.90      -99.90      -99.90      -99.90      -99.90      -99.90      -99.90      -99.90      -99.90      -99.90    
  13   -99.90      -99.90      -99.90      -99.90      -99.90      -99.90      -99.90      -99.90      -99.90      -99.90    
       -99.90      -99.90      -99.90      -99.90      -99.90      -99.90      -99.90      -99.90      -99.90      -99.90    
       -99.90      -99.90      -99.90      -99.90      -99.90      -99.90      -99.90      -99.90      -99.90      -99.90    
       -99.90      -99.90      -99.90      -99.90      -99.90      -99.90      -99.90      -99.90      -99.90      -99.90    
  14   -99.90      -99.90      -99.90      -99.90      -99.90      -99.90      -99.90      -99.90      -99.90      -99.90    
       -99.90      -99.90      -99.90      -99.90      -99.90      -99.90      -99.90      -99.90      -99.90      -99.90    
       -99.90      -99.90      -99.90      -99.90      -99.90      -99.90      -99.90      -99.90      -99.90      -99.90    
       -99.90      -99.90      -99.90      -99.90      -99.90      -99.90      -99.90      -99.90      -99.90      -99.90    
  15   -99.90      -99.90      -99.90      -99.90      -99.90      -99.90      -99.90      -99.90      -99.90      -99.90    
       -99.90      -99.90      -99.90      -99.90      -99.90      -99.90      -99.90      -99.90      -99.90      -99.90    
       -99.90      -99.90      -99.90      -99.90      -99.90      -99.90      -99.90      -99.90      -99.90      -99.90    
       -99.90      -99.90      -99.90      -99.90      -99.90      -99.90      -99.90      -99.90      -99.90      -99.90    
  16   -99.90      -99.90      -99.90      -99.90      -99.90      -99.90      -99.90      -99.90      -99.90      -99.90    
       -99.90      -99.90      -99.90      -99.90      -99.90      -99.90      -99.90      -99.90      -99.90      -99.90    
       -99.90      -99.90      -99.90      -99.90      -99.90      -99.90      -99.90      -99.90      -99.90      -99.90    
       -99.90      -99.90      -99.90      -99.90      -99.90      -99.90      -99.90      -99.90      -99.90      -99.90    
  17   -99.90      -99.90      -99.90      -99.90      -99.90      -99.90      -99.90      -99.90      -99.90      -99.90    
       -99.90      -99.90      -99.90      -99.90      -99.90      -99.90      -99.90      -99.90      -99.90      -99.90    
       -99.90      -99.90      -99.90      -99.90      -99.90      -99.90      -99.90      -99.90      -99.90      -99.90    
       -99.90      -99.90      -99.90      -99.90      -99.90      -99.90      -99.90      -99.90      -99.90      -99.90    
  18   -99.90      -99.90      -99.90      -99.90      -99.90      -99.90      -99.90      -99.90      -99.90      -99.90    
       -99.90      -99.90      -99.90      -99.90      -99.90      -99.90      -99.90      -99.90      -99.90      -99.90    
       -99.90      -99.90      -99.90      -99.90      -99.90      -99.90      -99.90      -99.90      -99.90      -99.90    
       -99.90      -99.90      -99.90      -99.90      -99.90      -99.90      -99.90      -99.90      -99.90      -99.90    
  19   -99.90      -99.90      -99.90      -99.90      -99.90      -99.90      -99.90      -99.90      -99.90      -99.90    
       -99.90      -99.90      -99.90      -99.90      -99.90      -99.90      -99.90      -99.90      -99.90      -99.90    
       -99.90      -99.90      -99.90      -99.90      -99.90      -99.90      -99.90      -99.90      -99.90      -99.90    
       -99.90      -99.90      -99.90      -99.90      -99.90      -99.90      -99.90      -99.90      -99.90      -99.90    
  20   -99.90      -99.90      -99.90      -99.90      -99.90      -99.90      -99.90      -99.90      -99.90      -99.90    
       -99.90      -99.90      -99.90      -99.90      -99.90      -99.90      -99.90      -99.90      -99.90      -99.90    
       -99.90      -99.90      -99.90      -99.90      -99.90      -99.90      -99.90      -99.90      -99.90      -99.90    
       -99.90      -99.90      -99.90      -99.90      -99.90      -99.90      -99.90      -99.90      -99.90      -99.90    
  21   -99.90      -99.90      -99.90      -99.90      -99.90      -99.90      -99.90      -99.90      -99.90      -99.90    
       -99.90      -99.90      -99.90      -99.90      -99.90      -99.90      -99.90      -99.90      -99.90      -99.90    
       -99.90      -99.90      -99.90      -99.90      -99.90      -99.90      -99.90      -99.90      -99.90      -99.90    
       -99.90      -99.90      -99.90      -99.90      -99.90      -99.90      -99.90      -99.90      -99.90      -99.90    
  22   -99.90      -99.90      -99.90      -99.90      -99.90      -99.90      -99.90      -99.90      -99.90      -99.90    
       -99.90      -99.90      -99.90      -99.90      -99.90      -99.90      -99.90      -99.90      -99.90      -99.90    
       -99.90      -99.90      -99.90      -99.90      -99.90      -99.90      -99.90      -99.90      -99.90      -99.90    
       -99.90      -99.90      -99.90      -99.90      -99.90      -99.90      -99.90      -99.90      -99.90      -99.90    
  23   -99.90      -99.90      -99.90      -99.90      -99.90      -99.90      -99.90      -99.90      -99.90      -99.90    
       -99.90      -99.90      -99.90      -99.90      -99.90      -99.90      -99.90      -99.90      -99.90      -99.90    
       -99.90      -99.90      -99.90      -99.90      -99.90      -99.90      -99.90      -99.90      -99.90      -99.90    
       -99.90      -99.90      -99.90      -99.90      -99.90      -99.90      -99.90      -99.90      -99.90      -99.90    
  24   -99.90      -99.90      -99.90      -99.90      -99.90      -99.90      -99.90      -99.90      -99.90      -99.90    
       -99.90      -99.90      -99.90      -99.90      -99.90      -99.90      -99.90      -99.90      -99.90      -99.90    
       -99.90      -99.90      -99.90      -99.90      -99.90      -99.90      -99.90      -99.90      -99.90      -99.90    
       -99.90      -99.90      -99.90      -99.90      -99.90      -99.90      -99.90      -99.90      -99.90      -99.90    
  25   -99.90      -99.90      -99.90      -99.90      -99.90      -99.90      -99.90      -99.90      -99.90      -99.90    
       -99.90      -99.90      -99.90      -99.90      -99.90      -99.90      -99.90      -99.90      -99.90      -99.90    
       -99.90      -99.90      -99.90      -99.90      -99.90      -99.90      -99.90      -99.90      -99.90      -99.90    
       -99.90      -99.90      -99.90      -99.90      -99.90      -99.90      -99.90      -99.90      -99.90      -99.90    
  26   -99.90      -99.90      -99.90      -99.90      -99.90      -99.90      -99.90      -99.90      -99.90      -99.90    
       -99.90      -99.90      -99.90      -99.90      -99.90      -99.90      -99.90      -99.90      -99.90      -99.90    
       -99.90      -99.90      -99.90      -99.90      -99.90      -99.90      -99.90      -99.90      -99.90      -99.90    
       -99.90      -99.90      -99.90      -99.90      -99.90      -99.90      -99.90      -99.90      -99.90      -99.90    
  27   -99.90      -99.90      -99.90      -99.90      -99.90      -99.90      -99.90      -99.90      -99.90      -99.90    
       -99.90      -99.90      -99.90      -99.90      -99.90      -99.90      -99.90      -99.90      -99.90      -99.90    
       -99.90      -99.90      -99.90      -99.90      -99.90      -99.90      -99.90      -99.90      -99.90      -99.90    
       -99.90      -99.90      -99.90      -99.90      -99.90      -99.90      -99.90      -99.90      -99.90      -99.90    
  28   -99.90      -99.90      -99.90      -99.90      -99.90      -99.90      -99.90      -99.90      -99.90      -99.90    
       -99.90      -99.90      -99.90      -99.90      -99.90      -99.90      -99.90      -99.90      -99.90      -99.90    
       -99.90      -99.90      -99.90      -99.90      -99.90      -99.90      -99.90      -99.90      -99.90      -99.90    
       -99.90      -99.90      -99.90      -99.90      -99.90      -99.90      -99.90      -99.90      -99.90      -99.90    
  29   -99.90      -99.90      -99.90      -99.90      -99.90      -99.90      -99.90      -99.90      -99.90      -99.90    
       -99.90      -99.90      -99.90      -99.90      -99.90      -99.90      -99.90      -99.90      -99.90      -99.90    
       -99.90      -99.90      -99.90      -99.90      -99.90      -99.90      -99.90      -99.90      -99.90      -99.90    
       -99.90      -99.90      -99.90      -99.90      -99.90      -99.90      -99.90      -99.90      -99.90      -99.90    
  30   -99.90      -99.90      -99.90      -99.90      -99.90      -99.90      -99.90      -99.90      -99.90      -99.90    
       -99.90      -99.90      -99.90      -99.90      -99.90      -99.90      -99.90      -99.90      -99.90      -99.90    
       -99.90      -99.90      -99.90      -99.90      -99.90      -99.90      -99.90      -99.90      -99.90      -99.90    
       -99.90      -99.90      -99.90      -99.90      -99.90      -99.90      -99.90      -99.90      -99.90      -99.90    
  31   -99.90      -99.90      -99.90      -99.90      -99.90      -99.90      -99.90      -99.90      -99.90      -99.90    
       -99.90      -99.90      -99.90      -99.90      -99.90      -99.90      -99.90      -99.90      -99.90      -99.90    
       -99.90      -99.90      -99.90      -99.90      -99.90      -99.90      -99.90      -99.90      -99.90      -99.90    
       -99.90      -99.90      -99.90      -99.90      -99.90      -99.90      -99.90      -99.90      -99.90      -99.90    
  32   -99.90      -99.90      -99.90      -99.90      -99.90      -99.90      -99.90      -99.90      -99.90      -99.90    
       -99.90      -99.90      -99.90      -99.90      -99.90      -99.90      -99.90      -99.90      -99.90      -99.90    
       -99.90      -99.90      -99.90      -99.90      -99.90      -99.90      -99.90      -99.90      -99.90      -99.90    
       -99.90      -99.90      -99.90      -99.90      -99.90      -99.90      -99.90      -99.90      -99.90      -99.90    
  33   -99.90      -99.90      -99.90      -99.90      -99.90      -99.90      -99.90      -99.90      -99.90      -99.90    
       -99.90      -99.90      -99.90      -99.90      -99.90      -99.90      -99.90      -99.90      -99.90      -99.90    
       -99.90      -99.90      -99.90      -99.90      -99.90      -99.90      -99.90      -99.90      -99.90      -99.90    
       -99.90      -99.90      -99.90      -99.90      -99.90      -99.90      -99.90      -99.90      -99.90      -99.90    
  34   -99.90      -99.90      -99.90      -99.90      -99.90      -99.90      -99.90      -99.90      -99.90      -99.90    
       -99.90      -99.90      -99.90      -99.90      -99.90      -99.90      -99.90      -99.90      -99.90      -99.90    
       -99.90      -99.90      -99.90      -99.90      -99.90      -99.90      -99.90      -99.90      -99.90      -99.90    
       -99.90      -99.90      -99.90      -99.90      -99.90      -99.90      -99.90      -99.90      -99.90      -99.90    
  35   -99.90      -99.90      -99.90      -99.90      -99.90      -99.90      -99.90      -99.90      -99.90      -99.90    
       -99.90      -99.90      -99.90      -99.90      -99.90      -99.90      -99.90      -99.90      -99.90      -99.90    
       -99.90      -99.90      -99.90      -99.90      -99.90      -99.90      -99.90      -99.90      -99.90      -99.90    
       -99.90      -99.90      -99.90      -99.90      -99.90      -99.90      -99.90      -99.90      -99.90      -99.90    
  36   -99.90      -99.90      -99.90      -99.90      -99.90      -99.90      -99.90      -99.90      -99.90      -99.90    
       -99.90      -99.90      -99.90      -99.90      -99.90      -99.90      -99.90      -99.90      -99.90      -99.90    
       -99.90      -99.90      -99.90      -99.90      -99.90      -99.90      -99.90      -99.90      -99.90      -99.90    
       -99.90      -99.90      -99.90      -99.90      -99.90      -99.90      -99.90      -99.90      -99.90      -99.90    
  37   -99.90      -99.90      -99.90      -99.90      -99.90      -99.90      -99.90      -99.90      -99.90      -99.90    
       -99.90      -99.90      -99.90      -99.90      -99.90      -99.90      -99.90      -99.90      -99.90      -99.90    
       -99.90      -99.90      -99.90      -99.90      -99.90      -99.90      -99.90      -99.90      -99.90      -99.90    
       -99.90      -99.90      -99.90      -99.90      -99.90      -99.90      -99.90      -99.90      -99.90      -99.90    
  38   -99.90      -99.90      -99.90      -99.90      -99.90      -99.90      -99.90      -99.90      -99.90      -99.90    
       -99.90      -99.90      -99.90      -99.90      -99.90      -99.90      -99.90      -99.90      -99.90      -99.90    
       -99.90      -99.90      -99.90      -99.90      -99.90      -99.90      -99.90      -99.90      -99.90      -99.90    
       -99.90      -99.90      -99.90      -99.90      -99.90      -99.90      -99.90      -99.90      -99.90      -99.90    
  39   -99.90      -99.90      -99.90      -99.90      -99.90      -99.90      -99.90      -99.90      -99.90      -99.90    
       -99.90      -99.90      -99.90      -99.90      -99.90      -99.90      -99.90      -99.90      -99.90      -99.90    
       -99.90      -99.90      -99.90      -99.90      -99.90      -99.90      -99.90      -99.90      -99.90      -99.90    
       -99.90      -99.90      -99.90      -99.90      -99.90      -99.90      -99.90      -99.90      -99.90      -99.90    
  40   -99.90      -99.90      -99.90      -99.90      -99.90      -99.90      -99.90      -99.90      -99.90      -99.90    
       -99.90      -99.90      -99.90      -99.90      -99.90      -99.90      -99.90      -99.90      -99.90      -99.90    
       -99.90      -99.90      -99.90      -99.90      -99.90      -99.90      -99.90      -99.90      -99.90      -99.90    
       -99.90      -99.90      -99.90      -99.90      -99.90      -99.90      -99.90      -99.90      -99.90      -99.90    
1
              HEAD IN LAYER   3 AT END OF TIME STEP   1 IN STRESS PERIOD    3
  ---------------------------------------------------------------------------

            1           2           3           4           5           6           7           8           9          10
           11          12          13          14          15          16          17          18          19          20
           21          22          23          24          25          26          27          28          29          30
           31          32          33          34          35          36          37          38          39          40
 ........................................................................................................................
   1   -99.90      -99.90      -99.90      -99.90      -99.90      -99.90      -99.90      -99.90      -99.90      -99.90    
       -99.90      -99.90      -99.90      -99.90      -99.90      -99.90      -99.90      -99.90      -99.90      -99.90    
       -99.90      -99.90      -99.90      -99.90      -99.90      -99.90      -99.90      -99.90      -99.90      -99.90    
       -99.90      -99.90      -99.90      -99.90      -99.90      -99.90      -99.90      -99.90      -99.90      -99.90    
   2   -99.90      -99.90      -99.90      -99.90      -99.90      -99.90      -99.90      -99.90      -99.90      -99.90    
       -99.90      -99.90      -99.90      -99.90      -99.90      -99.90      -99.90      -99.90      -99.90      -99.90    
       -99.90      -99.90      -99.90      -99.90      -99.90      -99.90      -99.90      -99.90      -99.90      -99.90    
       -99.90      -99.90      -99.90      -99.90      -99.90      -99.90      -99.90      -99.90      -99.90      -99.90    
   3   -99.90      -99.90      -99.90      -99.90      -99.90      -99.90      -99.90      -99.90      -99.90      -99.90    
       -99.90      -99.90      -99.90      -99.90      -99.90      -99.90      -99.90      -99.90      -99.90      -99.90    
       -99.90      -99.90      -99.90      -99.90      -99.90      -99.90      -99.90      -99.90      -99.90      -99.90    
       -99.90      -99.90      -99.90      -99.90      -99.90      -99.90      -99.90      -99.90      -99.90      -99.90    
   4   -99.90      -99.90      -99.90      -99.90      -99.90      -99.90      -99.90      -99.90      -99.90      -99.90    
       -99.90      -99.90      -99.90      -99.90      -99.90      -99.90      -99.90      -99.90      -99.90      -99.90    
       -99.90      -99.90      -99.90      -99.90      -99.90      -99.90      -99.90      -99.90      -99.90      -99.90    
       -99.90      -99.90      -99.90      -99.90      -99.90      -99.90      -99.90      -99.90      -99.90      -99.90    
   5   -99.90      -99.90      -99.90      -99.90      -99.90      -99.90      -99.90      -99.90      -99.90      -99.90    
       -99.90      -99.90      -99.90      -99.90      -99.90      -99.90      -99.90      -99.90      -99.90      -99.90    
       -99.90      -99.90      -99.90      -99.90      -99.90      -99.90      -99.90      -99.90      -99.90      -99.90    
       -99.90      -99.90      -99.90      -99.90      -99.90      -99.90      -99.90      -99.90      -99.90      -99.90    
   6   -99.90      -99.90      -99.90      -99.90      -99.90      -99.90      -99.90      -99.90      -99.90      -99.90    
       -99.90      -99.90      -99.90      -99.90      -99.90      -99.90      -99.90      -99.90      -99.90      -99.90    
       -99.90      -99.90      -99.90      -99.90      -99.90      -99.90      -99.90      -99.90      -99.90      -99.90    
       -99.90      -99.90      -99.90      -99.90      -99.90      -99.90      -99.90      -99.90      -99.90      -99.90    
   7   -99.90      -99.90      -99.90      -99.90      -99.90      -99.90      -99.90      -99.90      -99.90      -99.90    
       -99.90      -99.90      -99.90      -99.90      -99.90      -99.90      -99.90      -99.90      -99.90      -99.90    
       -99.90      -99.90      -99.90      -99.90      -99.90      -99.90      -99.90      -99.90      -99.90      -99.90    
       -99.90      -99.90      -99.90      -99.90      -99.90      -99.90      -99.90      -99.90      -99.90      -99.90    
   8   -99.90      -99.90      -99.90      -99.90      -99.90      -99.90      -99.90      -99.90      -99.90      -99.90    
       -99.90      -99.90      -99.90      -99.90      -99.90      -99.90      -99.90      -99.90      -99.90      -99.90    
       -99.90      -99.90      -99.90      -99.90      -99.90      -99.90      -99.90      -99.90      -99.90      -99.90    
       -99.90      -99.90      -99.90      -99.90      -99.90      -99.90      -99.90      -99.90      -99.90      -99.90    
   9   -99.90      -99.90      -99.90      -99.90      -99.90      -99.90      -99.90      -99.90      -99.90      -99.90    
       -99.90      -99.90      -99.90      -99.90      -99.90      -99.90      -99.90      -99.90      -99.90      -99.90    
       -99.90      -99.90      -99.90      -99.90      -99.90      -99.90      -99.90      -99.90      -99.90      -99.90    
       -99.90      -99.90      -99.90      -99.90      -99.90      -99.90      -99.90      -99.90      -99.90      -99.90    
  10   -99.90      -99.90      -99.90      -99.90      -99.90      -99.90      -99.90      -99.90      -99.90      -99.90    
       -99.90      -99.90      -99.90      -99.90      -99.90      -99.90      -99.90      -99.90      -99.90      -99.90    
       -99.90      -99.90      -99.90      -99.90      -99.90      -99.90      -99.90      -99.90      -99.90      -99.90    
       -99.90      -99.90      -99.90      -99.90      -99.90      -99.90      -99.90      -99.90      -99.90      -99.90    
  11   -99.90      -99.90      -99.90      -99.90      -99.90      -99.90      -99.90      -99.90      -99.90      -99.90    
       -99.90      -99.90      -99.90      -99.90      -99.90      -99.90      -99.90      -99.90      -99.90      -99.90    
       -99.90      -99.90      -99.90      -99.90      -99.90      -99.90      -99.90      -99.90      -99.90      -99.90    
       -99.90      -99.90      -99.90      -99.90      -99.90      -99.90      -99.90      -99.90      -99.90      -99.90    
  12   -99.90      -99.90      -99.90      -99.90      -99.90      -99.90      -99.90      -99.90      -99.90      -99.90    
       -99.90      -99.90      -99.90      -99.90      -99.90      -99.90      -99.90      -99.90      -99.90      -99.90    
       -99.90      -99.90      -99.90      -99.90      -99.90      -99.90      -99.90      -99.90      -99.90      -99.90    
       -99.90      -99.90      -99.90      -99.90      -99.90      -99.90      -99.90      -99.90      -99.90      -99.90    
  13   -99.90      -99.90      -99.90      -99.90      -99.90      -99.90      -99.90      -99.90      -99.90      -99.90    
       -99.90      -99.90      -99.90      -99.90      -99.90      -99.90      -99.90      -99.90      -99.90      -99.90    
       -99.90      -99.90      -99.90      -99.90      -99.90      -99.90      -99.90      -99.90      -99.90      -99.90    
       -99.90      -99.90      -99.90      -99.90      -99.90      -99.90      -99.90      -99.90      -99.90      -99.90    
  14   -99.90      -99.90      -99.90      -99.90      -99.90      -99.90      -99.90      -99.90      -99.90      -99.90    
       -99.90      -99.90      -99.90      -99.90      -99.90      -99.90      -99.90      -99.90      -99.90      -99.90    
       -99.90      -99.90      -99.90      -99.90      -99.90      -99.90      -99.90      -99.90      -99.90      -99.90    
       -99.90      -99.90      -99.90      -99.90      -99.90      -99.90      -99.90      -99.90      -99.90      -99.90    
  15   -99.90      -99.90      -99.90      -99.90      -99.90      -99.90      -99.90      -99.90      -99.90      -99.90    
       -99.90      -99.90      -99.90      -99.90      -99.90      -99.90      -99.90      -99.90      -99.90      -99.90    
       -99.90      -99.90      -99.90      -99.90      -99.90      -99.90      -99.90      -99.90      -99.90      -99.90    
       -99.90      -99.90      -99.90      -99.90      -99.90      -99.90      -99.90      -99.90      -99.90      -99.90    
  16   -99.90      -99.90      -99.90      -99.90      -99.90      -99.90      -99.90      -99.90      -99.90      -99.90    
       -99.90      -99.90      -99.90      -99.90      -99.90      -99.90      -99.90      -99.90      -99.90      -99.90    
       -99.90      -99.90      -99.90      -99.90      -99.90      -99.90      -99.90      -99.90      -99.90      -99.90    
       -99.90      -99.90      -99.90      -99.90      -99.90      -99.90      -99.90      -99.90      -99.90      -99.90    
  17   -99.90      -99.90      -99.90      -99.90      -99.90      -99.90      -99.90      -99.90      -99.90      -99.90    
       -99.90      -99.90      -99.90      -99.90      -99.90      -99.90      -99.90      -99.90      -99.90      -99.90    
       -99.90      -99.90      -99.90      -99.90      -99.90      -99.90      -99.90      -99.90      -99.90      -99.90    
       -99.90      -99.90      -99.90      -99.90      -99.90      -99.90      -99.90      -99.90      -99.90      -99.90    
  18   -99.90      -99.90      -99.90      -99.90      -99.90      -99.90      -99.90      -99.90      -99.90      -99.90    
       -99.90      -99.90      -99.90      -99.90      -99.90      -99.90      -99.90      -99.90      -99.90      -99.90    
       -99.90      -99.90      -99.90      -99.90      -99.90      -99.90      -99.90      -99.90      -99.90      -99.90    
       -99.90      -99.90      -99.90      -99.90      -99.90      -99.90      -99.90      -99.90      -99.90      -99.90    
  19   -99.90      -99.90      -99.90      -99.90      -99.90      -99.90      -99.90      -99.90      -99.90      -99.90    
       -99.90      -99.90      -99.90      -99.90      -99.90      -99.90      -99.90      -99.90      -99.90      -99.90    
       -99.90      -99.90      -99.90      -99.90      -99.90      -99.90      -99.90      -99.90      -99.90      -99.90    
       -99.90      -99.90      -99.90      -99.90      -99.90      -99.90      -99.90      -99.90      -99.90      -99.90    
  20   -99.90      -99.90      -99.90      -99.90      -99.90      -99.90      -99.90      -99.90      -99.90      -99.90    
       -99.90      -99.90      -99.90      -99.90      -99.90      -99.90      -99.90      -99.90      -99.90      -99.90    
       -99.90      -99.90      -99.90      -99.90      -99.90      -99.90      -99.90      -99.90      -99.90      -99.90    
       -99.90      -99.90      -99.90      -99.90      -99.90      -99.90      -99.90      -99.90      -99.90      -99.90    
  21   -99.90      -99.90      -99.90      -99.90      -99.90      -99.90      -99.90      -99.90      -99.90      -99.90    
       -99.90      -99.90      -99.90      -99.90      -99.90      -99.90      -99.90      -99.90      -99.90      -99.90    
       -99.90      -99.90      -99.90      -99.90      -99.90      -99.90      -99.90      -99.90      -99.90      -99.90    
       -99.90      -99.90      -99.90      -99.90      -99.90      -99.90      -99.90      -99.90      -99.90      -99.90    
  22   -99.90      -99.90      -99.90      -99.90      -99.90      -99.90      -99.90      -99.90      -99.90      -99.90    
       -99.90      -99.90      -99.90      -99.90      -99.90      -99.90      -99.90      -99.90      -99.90      -99.90    
       -99.90      -99.90      -99.90      -99.90      -99.90      -99.90      -99.90      -99.90      -99.90      -99.90    
       -99.90      -99.90      -99.90      -99.90      -99.90      -99.90      -99.90      -99.90      -99.90      -99.90    
  23   -99.90      -99.90      -99.90      -99.90      -99.90      -99.90      -99.90      -99.90      -99.90      -99.90    
       -99.90      -99.90      -99.90      -99.90      -99.90      -99.90      -99.90      -99.90      -99.90      -99.90    
       -99.90      -99.90      -99.90      -99.90      -99.90      -99.90      -99.90      -99.90      -99.90      -99.90    
       -99.90      -99.90      -99.90      -99.90      -99.90      -99.90      -99.90      -99.90      -99.90      -99.90    
  24   -99.90      -99.90      -99.90      -99.90      -99.90      -99.90      -99.90      -99.90      -99.90      -99.90    
       -99.90      -99.90      -99.90      -99.90      -99.90      -99.90      -99.90      -99.90      -99.90      -99.90    
       -99.90      -99.90      -99.90      -99.90      -99.90      -99.90      -99.90      -99.90      -99.90      -99.90    
       -99.90      -99.90      -99.90      -99.90      -99.90      -99.90      -99.90      -99.90      -99.90      -99.90    
  25   -99.90      -99.90      -99.90      -99.90      -99.90      -99.90      -99.90      -99.90      -99.90      -99.90    
       -99.90      -99.90      -99.90      -99.90      -99.90      -99.90      -99.90      -99.90      -99.90      -99.90    
       -99.90      -99.90      -99.90      -99.90      -99.90      -99.90      -99.90      -99.90      -99.90      -99.90    
       -99.90      -99.90      -99.90      -99.90      -99.90      -99.90      -99.90      -99.90      -99.90      -99.90    
  26   -99.90      -99.90      -99.90      -99.90      -99.90      -99.90      -99.90      -99.90      -99.90      -99.90    
       -99.90      -99.90      -99.90      -99.90      -99.90      -99.90      -99.90      -99.90      -99.90      -99.90    
       -99.90      -99.90      -99.90      -99.90      -99.90      -99.90      -99.90      -99.90      -99.90      -99.90    
       -99.90      -99.90      -99.90      -99.90      -99.90      -99.90      -99.90      -99.90      -99.90      -99.90    
  27   -99.90      -99.90      -99.90      -99.90      -99.90      -99.90      -99.90      -99.90      -99.90      -99.90    
       -99.90      -99.90      -99.90      -99.90      -99.90      -99.90      -99.90      -99.90      -99.90      -99.90    
       -99.90      -99.90      -99.90      -99.90      -99.90      -99.90      -99.90      -99.90      -99.90      -99.90    
       -99.90      -99.90      -99.90      -99.90      -99.90      -99.90      -99.90      -99.90      -99.90      -99.90    
  28   -99.90      -99.90      -99.90      -99.90      -99.90      -99.90      -99.90      -99.90      -99.90      -99.90    
       -99.90      -99.90      -99.90      -99.90      -99.90      -99.90      -99.90      -99.90      -99.90      -99.90    
       -99.90      -99.90      -99.90      -99.90      -99.90      -99.90      -99.90      -99.90      -99.90      -99.90    
       -99.90      -99.90      -99.90      -99.90      -99.90      -99.90      -99.90      -99.90      -99.90      -99.90    
  29   -99.90      -99.90      -99.90      -99.90      -99.90      -99.90      -99.90      -99.90      -99.90      -99.90    
       -99.90      -99.90      -99.90      -99.90      -99.90      -99.90      -99.90      -99.90      -99.90      -99.90    
       -99.90      -99.90      -99.90      -99.90      -99.90      -99.90      -99.90      -99.90      -99.90      -99.90    
       -99.90      -99.90      -99.90      -99.90      -99.90      -99.90      -99.90      -99.90      -99.90      -99.90    
  30   -99.90      -99.90      -99.90      -99.90      -99.90      -99.90      -99.90      -99.90      -99.90      -99.90    
       -99.90      -99.90      -99.90      -99.90      -99.90      -99.90      -99.90      -99.90      -99.90      -99.90    
       -99.90      -99.90      -99.90      -99.90      -99.90      -99.90      -99.90      -99.90      -99.90      -99.90    
       -99.90      -99.90      -99.90      -99.90      -99.90      -99.90      -99.90      -99.90      -99.90      -99.90    
  31   -99.90      -99.90      -99.90      -99.90      -99.90      -99.90      -99.90      -99.90      -99.90      -99.90    
       -99.90      -99.90      -99.90      -99.90      -99.90      -99.90      -99.90      -99.90      -99.90      -99.90    
       -99.90      -99.90      -99.90      -99.90      -99.90      -99.90      -99.90      -99.90      -99.90      -99.90    
       -99.90      -99.90      -99.90      -99.90      -99.90      -99.90      -99.90      -99.90      -99.90      -99.90    
  32   -99.90      -99.90      -99.90      -99.90      -99.90      -99.90      -99.90      -99.90      -99.90      -99.90    
       -99.90      -99.90      -99.90      -99.90      -99.90      -99.90      -99.90      -99.90      -99.90      -99.90    
       -99.90      -99.90      -99.90      -99.90      -99.90      -99.90      -99.90      -99.90      -99.90      -99.90    
       -99.90      -99.90      -99.90      -99.90      -99.90      -99.90      -99.90      -99.90      -99.90      -99.90    
  33   -99.90      -99.90      -99.90      -99.90      -99.90      -99.90      -99.90      -99.90      -99.90      -99.90    
       -99.90      -99.90      -99.90      -99.90      -99.90      -99.90      -99.90      -99.90      -99.90      -99.90    
       -99.90      -99.90      -99.90      -99.90      -99.90      -99.90      -99.90      -99.90      -99.90      -99.90    
       -99.90      -99.90      -99.90      -99.90      -99.90      -99.90      -99.90      -99.90      -99.90      -99.90    
  34   -99.90      -99.90      -99.90      -99.90      -99.90      -99.90      -99.90      -99.90      -99.90      -99.90    
       -99.90      -99.90      -99.90      -99.90      -99.90      -99.90      -99.90      -99.90      -99.90      -99.90    
       -99.90      -99.90      -99.90      -99.90      -99.90      -99.90      -99.90      -99.90      -99.90      -99.90    
       -99.90      -99.90      -99.90      -99.90      -99.90      -99.90      -99.90      -99.90      -99.90      -99.90    
  35   -99.90      -99.90      -99.90      -99.90      -99.90      -99.90      -99.90      -99.90      -99.90      -99.90    
       -99.90      -99.90      -99.90      -99.90      -99.90      -99.90      -99.90      -99.90      -99.90      -99.90    
       -99.90      -99.90      -99.90      -99.90      -99.90      -99.90      -99.90      -99.90      -99.90      -99.90    
       -99.90      -99.90      -99.90      -99.90      -99.90      -99.90      -99.90      -99.90      -99.90      -99.90    
  36   -99.90      -99.90      -99.90      -99.90      -99.90      -99.90      -99.90      -99.90      -99.90      -99.90    
       -99.90      -99.90      -99.90      -99.90      -99.90      -99.90      -99.90      -99.90      -99.90      -99.90    
       -99.90      -99.90      -99.90      -99.90      -99.90      -99.90      -99.90      -99.90      -99.90      -99.90    
       -99.90      -99.90      -99.90      -99.90      -99.90      -99.90      -99.90      -99.90      -99.90      -99.90    
  37   -99.90      -99.90      -99.90      -99.90      -99.90      -99.90      -99.90      -99.90      -99.90      -99.90    
       -99.90      -99.90      -99.90      -99.90      -99.90      -99.90      -99.90      -99.90      -99.90      -99.90    
       -99.90      -99.90      -99.90      -99.90      -99.90      -99.90      -99.90      -99.90      -99.90      -99.90    
       -99.90      -99.90      -99.90      -99.90      -99.90      -99.90      -99.90      -99.90      -99.90      -99.90    
  38   -99.90      -99.90      -99.90      -99.90      -99.90      -99.90      -99.90      -99.90      -99.90      -99.90    
       -99.90      -99.90      -99.90      -99.90      -99.90      -99.90      -99.90      -99.90      -99.90      -99.90    
       -99.90      -99.90      -99.90      -99.90      -99.90      -99.90      -99.90      -99.90      -99.90      -99.90    
       -99.90      -99.90      -99.90      -99.90      -99.90      -99.90      -99.90      -99.90      -99.90      -99.90    
  39   -99.90      -99.90      -99.90      -99.90      -99.90      -99.90      -99.90      -99.90      -99.90      -99.90    
       -99.90      -99.90      -99.90      -99.90      -99.90      -99.90      -99.90      -99.90      -99.90      -99.90    
       -99.90      -99.90      -99.90      -99.90      -99.90      -99.90      -99.90      -99.90      -99.90      -99.90    
       -99.90      -99.90      -99.90      -99.90      -99.90      -99.90      -99.90      -99.90      -99.90      -99.90    
  40   -99.90      -99.90      -99.90      -99.90      -99.90      -99.90      -99.90      -99.90      -99.90      -99.90    
       -99.90      -99.90      -99.90      -99.90      -99.90      -99.90      -99.90      -99.90      -99.90      -99.90    
       -99.90      -99.90      -99.90      -99.90      -99.90      -99.90      -99.90      -99.90      -99.90      -99.90    
       -99.90      -99.90      -99.90      -99.90      -99.90      -99.90      -99.90      -99.90      -99.90      -99.90    
1
              HEAD IN LAYER   4 AT END OF TIME STEP   1 IN STRESS PERIOD    3
  ---------------------------------------------------------------------------

            1           2           3           4           5           6           7           8           9          10
           11          12          13          14          15          16          17          18          19          20
           21          22          23          24          25          26          27          28          29          30
           31          32          33          34          35          36          37          38          39          40
 ........................................................................................................................
   1   -99.90      -99.90      -99.90      -99.90      -99.90      -99.90      -99.90      -99.90      -99.90      -99.90    
       -99.90      -99.90      -99.90      -99.90      -99.90      -99.90      -99.90      -99.90      -99.90      -99.90    
       -99.90      -99.90      -99.90      -99.90      -99.90      -99.90      -99.90      -99.90      -99.90      -99.90    
       -99.90      -99.90      -99.90      -99.90      -99.90      -99.90      -99.90      -99.90      -99.90      -99.90    
   2   -99.90      -99.90      -99.90      -99.90      -99.90      -99.90      -99.90      -99.90      -99.90      -99.90    
       -99.90      -99.90      -99.90      -99.90      -99.90      -99.90      -99.90      -99.90      -99.90      -99.90    
       -99.90      -99.90      -99.90      -99.90      -99.90      -99.90      -99.90      -99.90      -99.90      -99.90    
       -99.90      -99.90      -99.90      -99.90      -99.90      -99.90      -99.90      -99.90      -99.90      -99.90    
   3   -99.90      -99.90      -99.90      -99.90      -99.90      -99.90      -99.90      -99.90      -99.90      -99.90    
       -99.90      -99.90      -99.90      -99.90      -99.90      -99.90      -99.90      -99.90      -99.90      -99.90    
       -99.90      -99.90      -99.90      -99.90      -99.90      -99.90      -99.90      -99.90      -99.90      -99.90    
       -99.90      -99.90      -99.90      -99.90      -99.90      -99.90      -99.90      -99.90      -99.90      -99.90    
   4   -99.90      -99.90      -99.90      -99.90      -99.90      -99.90      -99.90      -99.90      -99.90      -99.90    
       -99.90      -99.90      -99.90      -99.90      -99.90      -99.90      -99.90      -99.90      -99.90      -99.90    
       -99.90      -99.90      -99.90      -99.90      -99.90      -99.90      -99.90      -99.90      -99.90      -99.90    
       -99.90      -99.90      -99.90      -99.90      -99.90      -99.90      -99.90      -99.90      -99.90      -99.90    
   5   -99.90      -99.90      -99.90      -99.90      -99.90      -99.90      -99.90      -99.90      -99.90      -99.90    
       -99.90      -99.90      -99.90      -99.90      -99.90      -99.90      -99.90      -99.90      -99.90      -99.90    
       -99.90      -99.90      -99.90      -99.90      -99.90      -99.90      -99.90      -99.90      -99.90      -99.90    
       -99.90      -99.90      -99.90      -99.90      -99.90      -99.90      -99.90      -99.90      -99.90      -99.90    
   6   -99.90      -99.90      -99.90      -99.90      -99.90      -99.90      -99.90      -99.90      -99.90      -99.90    
       -99.90      -99.90      -99.90      -99.90      -99.90      -99.90      -99.90      -99.90      -99.90      -99.90    
       -99.90      -99.90      -99.90      -99.90      -99.90      -99.90      -99.90      -99.90      -99.90      -99.90    
       -99.90      -99.90      -99.90      -99.90      -99.90      -99.90      -99.90      -99.90      -99.90      -99.90    
   7   -99.90      -99.90      -99.90      -99.90      -99.90      -99.90      -99.90      -99.90      -99.90      -99.90    
       -99.90      -99.90      -99.90      -99.90      -99.90      -99.90      -99.90      -99.90      -99.90      -99.90    
       -99.90      -99.90      -99.90      -99.90      -99.90      -99.90      -99.90      -99.90      -99.90      -99.90    
       -99.90      -99.90      -99.90      -99.90      -99.90      -99.90      -99.90      -99.90      -99.90      -99.90    
   8   -99.90      -99.90      -99.90      -99.90      -99.90      -99.90      -99.90      -99.90      -99.90      -99.90    
       -99.90      -99.90      -99.90      -99.90      -99.90      -99.90      -99.90      -99.90      -99.90      -99.90    
       -99.90      -99.90      -99.90      -99.90      -99.90      -99.90      -99.90      -99.90      -99.90      -99.90    
       -99.90      -99.90      -99.90      -99.90      -99.90      -99.90      -99.90      -99.90      -99.90      -99.90    
   9   -99.90      -99.90      -99.90      -99.90      -99.90      -99.90      -99.90      -99.90      -99.90      -99.90    
       -99.90      -99.90      -99.90      -99.90      -99.90      -99.90      -99.90      -99.90      -99.90      -99.90    
       -99.90      -99.90      -99.90      -99.90      -99.90      -99.90      -99.90      -99.90      -99.90      -99.90    
       -99.90      -99.90      -99.90      -99.90      -99.90      -99.90      -99.90      -99.90      -99.90      -99.90    
  10   -99.90      -99.90      -99.90      -99.90      -99.90      -99.90      -99.90      -99.90      -99.90      -99.90    
       -99.90      -99.90      -99.90      -99.90      -99.90      -99.90      -99.90      -99.90      -99.90      -99.90    
       -99.90      -99.90      -99.90      -99.90      -99.90      -99.90      -99.90      -99.90      -99.90      -99.90    
       -99.90      -99.90      -99.90      -99.90      -99.90      -99.90      -99.90      -99.90      -99.90      -99.90    
  11   -99.90      -99.90      -99.90      -99.90      -99.90      -99.90      -99.90      -99.90      -99.90      -99.90    
       -99.90      -99.90      -99.90      -99.90      -99.90      -99.90      -99.90      -99.90      -99.90      -99.90    
       -99.90      -99.90      -99.90      -99.90      -99.90      -99.90      -99.90      -99.90      -99.90      -99.90    
       -99.90      -99.90      -99.90      -99.90      -99.90      -99.90      -99.90      -99.90      -99.90      -99.90    
  12   -99.90      -99.90      -99.90      -99.90      -99.90      -99.90      -99.90      -99.90      -99.90      -99.90    
       -99.90      -99.90      -99.90      -99.90      -99.90      -99.90      -99.90      -99.90      -99.90      -99.90    
       -99.90      -99.90      -99.90      -99.90      -99.90      -99.90      -99.90      -99.90      -99.90      -99.90    
       -99.90      -99.90      -99.90      -99.90      -99.90      -99.90      -99.90      -99.90      -99.90      -99.90    
  13   -99.90      -99.90      -99.90      -99.90      -99.90      -99.90      -99.90      -99.90      -99.90      -99.90    
       -99.90      -99.90      -99.90      -99.90      -99.90      -99.90      -99.90      -99.90      -99.90      -99.90    
       -99.90      -99.90      -99.90      -99.90      -99.90      -99.90      -99.90      -99.90      -99.90      -99.90    
       -99.90      -99.90      -99.90      -99.90      -99.90      -99.90      -99.90      -99.90      -99.90      -99.90    
  14   -99.90      -99.90      -99.90      -99.90      -99.90      -99.90      -99.90      -99.90      -99.90      -99.90    
       -99.90      -99.90      -99.90      -99.90      -99.90      -99.90      -99.90      -99.90      -99.90      -99.90    
       -99.90      -99.90      -99.90      -99.90      -99.90      -99.90      -99.90      -99.90      -99.90      -99.90    
       -99.90      -99.90      -99.90      -99.90      -99.90      -99.90      -99.90      -99.90      -99.90      -99.90    
  15   -99.90      -99.90      -99.90      -99.90      -99.90      -99.90      -99.90      -99.90      -99.90      -99.90    
       -99.90      -99.90      -99.90      -99.90      -99.90      -99.90      -99.90      -99.90      -99.90      -99.90    
       -99.90      -99.90      -99.90      -99.90      -99.90      -99.90      -99.90      -99.90      -99.90      -99.90    
       -99.90      -99.90      -99.90      -99.90      -99.90      -99.90      -99.90      -99.90      -99.90      -99.90    
  16   -99.90      -99.90      -99.90      -99.90      -99.90      -99.90      -99.90      -99.90      -99.90      -99.90    
       -99.90      -99.90      -99.90      -99.90      -99.90      -99.90      -99.90      -99.90      -99.90      -99.90    
       -99.90      -99.90      -99.90      -99.90      -99.90      -99.90      -99.90      -99.90      -99.90      -99.90    
       -99.90      -99.90      -99.90      -99.90      -99.90      -99.90      -99.90      -99.90      -99.90      -99.90    
  17   -99.90      -99.90      -99.90      -99.90      -99.90      -99.90      -99.90      -99.90      -99.90      -99.90    
       -99.90      -99.90      -99.90      -99.90      -99.90      -99.90      -99.90      -99.90      -99.90      -99.90    
       -99.90      -99.90      -99.90      -99.90      -99.90      -99.90      -99.90      -99.90      -99.90      -99.90    
       -99.90      -99.90      -99.90      -99.90      -99.90      -99.90      -99.90      -99.90      -99.90      -99.90    
  18   -99.90      -99.90      -99.90      -99.90      -99.90      -99.90      -99.90      -99.90      -99.90      -99.90    
       -99.90      -99.90      -99.90      -99.90      -99.90      -99.90      -99.90      -99.90      -99.90      -99.90    
       -99.90      -99.90      -99.90      -99.90      -99.90      -99.90      -99.90      -99.90      -99.90      -99.90    
       -99.90      -99.90      -99.90      -99.90      -99.90      -99.90      -99.90      -99.90      -99.90      -99.90    
  19   -99.90      -99.90      -99.90      -99.90      -99.90      -99.90      -99.90      -99.90      -99.90      -99.90    
       -99.90      -99.90      -99.90      -99.90      -99.90      -99.90      -99.90      -99.90      -99.90      -99.90    
       -99.90      -99.90      -99.90      -99.90      -99.90      -99.90      -99.90      -99.90      -99.90      -99.90    
       -99.90      -99.90      -99.90      -99.90      -99.90      -99.90      -99.90      -99.90      -99.90      -99.90    
  20   -99.90      -99.90      -99.90      -99.90      -99.90      -99.90      -99.90      -99.90      -99.90      -99.90    
       -99.90      -99.90      -99.90      -99.90      -99.90      -99.90      -99.90      -99.90      -99.90      -99.90    
       -99.90      -99.90      -99.90      -99.90      -99.90      -99.90      -99.90      -99.90      -99.90      -99.90    
       -99.90      -99.90      -99.90      -99.90      -99.90      -99.90      -99.90      -99.90      -99.90      -99.90    
  21   -99.90      -99.90      -99.90      -99.90      -99.90      -99.90      -99.90      -99.90      -99.90      -99.90    
       -99.90      -99.90      -99.90      -99.90      -99.90      -99.90      -99.90      -99.90      -99.90      -99.90    
       -99.90      -99.90      -99.90      -99.90      -99.90      -99.90      -99.90      -99.90      -99.90      -99.90    
       -99.90      -99.90      -99.90      -99.90      -99.90      -99.90      -99.90      -99.90      -99.90      -99.90    
  22   -99.90      -99.90      -99.90      -99.90      -99.90      -99.90      -99.90      -99.90      -99.90      -99.90    
       -99.90      -99.90      -99.90      -99.90      -99.90      -99.90      -99.90      -99.90      -99.90      -99.90    
       -99.90      -99.90      -99.90      -99.90      -99.90      -99.90      -99.90      -99.90      -99.90      -99.90    
       -99.90      -99.90      -99.90      -99.90      -99.90      -99.90      -99.90      -99.90      -99.90      -99.90    
  23   -99.90      -99.90      -99.90      -99.90      -99.90      -99.90      -99.90      -99.90      -99.90      -99.90    
       -99.90      -99.90      -99.90      -99.90      -99.90      -99.90      -99.90      -99.90      -99.90      -99.90    
       -99.90      -99.90      -99.90      -99.90      -99.90      -99.90      -99.90      -99.90      -99.90      -99.90    
       -99.90      -99.90      -99.90      -99.90      -99.90      -99.90      -99.90      -99.90      -99.90      -99.90    
  24   -99.90      -99.90      -99.90      -99.90      -99.90      -99.90      -99.90      -99.90      -99.90      -99.90    
       -99.90      -99.90      -99.90      -99.90      -99.90      -99.90      -99.90      -99.90      -99.90      -99.90    
       -99.90      -99.90      -99.90      -99.90      -99.90      -99.90      -99.90      -99.90      -99.90      -99.90    
       -99.90      -99.90      -99.90      -99.90      -99.90      -99.90      -99.90      -99.90      -99.90      -99.90    
  25   -99.90      -99.90      -99.90      -99.90      -99.90      -99.90      -99.90      -99.90      -99.90      -99.90    
       -99.90      -99.90      -99.90      -99.90      -99.90      -99.90      -99.90      -99.90      -99.90      -99.90    
       -99.90      -99.90      -99.90      -99.90      -99.90      -99.90      -99.90      -99.90      -99.90      -99.90    
       -99.90      -99.90      -99.90      -99.90      -99.90      -99.90      -99.90      -99.90      -99.90      -99.90    
  26   -99.90      -99.90      -99.90      -99.90      -99.90      -99.90      -99.90      -99.90      -99.90      -99.90    
       -99.90      -99.90      -99.90      -99.90      -99.90      -99.90      -99.90      -99.90      -99.90      -99.90    
       -99.90      -99.90      -99.90      -99.90      -99.90      -99.90      -99.90      -99.90      -99.90      -99.90    
       -99.90      -99.90      -99.90      -99.90      -99.90      -99.90      -99.90      -99.90      -99.90      -99.90    
  27   -99.90      -99.90      -99.90      -99.90      -99.90      -99.90      -99.90      -99.90      -99.90      -99.90    
       -99.90      -99.90      -99.90      -99.90      -99.90      -99.90      -99.90      -99.90      -99.90      -99.90    
       -99.90      -99.90      -99.90      -99.90      -99.90      -99.90      -99.90      -99.90      -99.90      -99.90    
       -99.90      -99.90      -99.90      -99.90      -99.90      -99.90      -99.90      -99.90      -99.90      -99.90    
  28   -99.90      -99.90      -99.90      -99.90      -99.90      -99.90      -99.90      -99.90      -99.90      -99.90    
       -99.90      -99.90      -99.90      -99.90      -99.90      -99.90      -99.90      -99.90      -99.90      -99.90    
       -99.90      -99.90      -99.90      -99.90      -99.90      -99.90      -99.90      -99.90      -99.90      -99.90    
       -99.90      -99.90      -99.90      -99.90      -99.90      -99.90      -99.90      -99.90      -99.90      -99.90    
  29   -99.90      -99.90      -99.90      -99.90      -99.90      -99.90      -99.90      -99.90      -99.90      -99.90    
       -99.90      -99.90      -99.90      -99.90      -99.90      -99.90      -99.90      -99.90      -99.90      -99.90    
       -99.90      -99.90      -99.90      -99.90      -99.90      -99.90      -99.90      -99.90      -99.90      -99.90    
       -99.90      -99.90      -99.90      -99.90      -99.90      -99.90      -99.90      -99.90      -99.90      -99.90    
  30   -99.90      -99.90      -99.90      -99.90      -99.90      -99.90      -99.90      -99.90      -99.90      -99.90    
       -99.90      -99.90      -99.90      -99.90      -99.90      -99.90      -99.90      -99.90      -99.90      -99.90    
       -99.90      -99.90      -99.90      -99.90      -99.90      -99.90      -99.90      -99.90      -99.90      -99.90    
       -99.90      -99.90      -99.90      -99.90      -99.90      -99.90      -99.90      -99.90      -99.90      -99.90    
  31   -99.90      -99.90      -99.90      -99.90      -99.90      -99.90      -99.90      -99.90      -99.90      -99.90    
       -99.90      -99.90      -99.90      -99.90      -99.90      -99.90      -99.90      -99.90      -99.90      -99.90    
       -99.90      -99.90      -99.90      -99.90      -99.90      -99.90      -99.90      -99.90      -99.90      -99.90    
       -99.90      -99.90      -99.90      -99.90      -99.90      -99.90      -99.90      -99.90      -99.90      -99.90    
  32   -99.90      -99.90      -99.90      -99.90      -99.90      -99.90      -99.90      -99.90      -99.90      -99.90    
       -99.90      -99.90      -99.90      -99.90      -99.90      -99.90      -99.90      -99.90      -99.90      -99.90    
       -99.90      -99.90      -99.90      -99.90      -99.90      -99.90      -99.90      -99.90      -99.90      -99.90    
       -99.90      -99.90      -99.90      -99.90      -99.90      -99.90      -99.90      -99.90      -99.90      -99.90    
  33   -99.90      -99.90      -99.90      -99.90      -99.90      -99.90      -99.90      -99.90      -99.90      -99.90    
       -99.90      -99.90      -99.90      -99.90      -99.90      -99.90      -99.90      -99.90      -99.90      -99.90    
       -99.90      -99.90      -99.90      -99.90      -99.90      -99.90      -99.90      -99.90      -99.90      -99.90    
       -99.90      -99.90      -99.90      -99.90      -99.90      -99.90      -99.90      -99.90      -99.90      -99.90    
  34   -99.90      -99.90      -99.90      -99.90      -99.90      -99.90      -99.90      -99.90      -99.90      -99.90    
       -99.90      -99.90      -99.90      -99.90      -99.90      -99.90      -99.90      -99.90      -99.90      -99.90    
       -99.90      -99.90      -99.90      -99.90      -99.90      -99.90      -99.90      -99.90      -99.90      -99.90    
       -99.90      -99.90      -99.90      -99.90      -99.90      -99.90      -99.90      -99.90      -99.90      -99.90    
  35   -99.90      -99.90      -99.90      -99.90      -99.90      -99.90      -99.90      -99.90      -99.90      -99.90    
       -99.90      -99.90      -99.90      -99.90      -99.90      -99.90      -99.90      -99.90      -99.90      -99.90    
       -99.90      -99.90      -99.90      -99.90      -99.90      -99.90      -99.90      -99.90      -99.90      -99.90    
       -99.90      -99.90      -99.90      -99.90      -99.90      -99.90      -99.90      -99.90      -99.90      -99.90    
  36   -99.90      -99.90      -99.90      -99.90      -99.90      -99.90      -99.90      -99.90      -99.90      -99.90    
       -99.90      -99.90      -99.90      -99.90      -99.90      -99.90      -99.90      -99.90      -99.90      -99.90    
       -99.90      -99.90      -99.90      -99.90      -99.90      -99.90      -99.90      -99.90      -99.90      -99.90    
       -99.90      -99.90      -99.90      -99.90      -99.90      -99.90      -99.90      -99.90      -99.90      -99.90    
  37   -99.90      -99.90      -99.90      -99.90      -99.90      -99.90      -99.90      -99.90      -99.90      -99.90    
       -99.90      -99.90      -99.90      -99.90      -99.90      -99.90      -99.90      -99.90      -99.90      -99.90    
       -99.90      -99.90      -99.90      -99.90      -99.90      -99.90      -99.90      -99.90      -99.90      -99.90    
       -99.90      -99.90      -99.90      -99.90      -99.90      -99.90      -99.90      -99.90      -99.90      -99.90    
  38   -99.90      -99.90      -99.90      -99.90      -99.90      -99.90      -99.90      -99.90      -99.90      -99.90    
       -99.90      -99.90      -99.90      -99.90      -99.90      -99.90      -99.90      -99.90      -99.90      -99.90    
       -99.90      -99.90      -99.90      -99.90      -99.90      -99.90      -99.90      -99.90      -99.90      -99.90    
       -99.90      -99.90      -99.90      -99.90      -99.90      -99.90      -99.90      -99.90      -99.90      -99.90    
  39   -99.90      -99.90      -99.90      -99.90      -99.90      -99.90      -99.90      -99.90      -99.90      -99.90    
       -99.90      -99.90      -99.90      -99.90      -99.90      -99.90      -99.90      -99.90      -99.90      -99.90    
       -99.90      -99.90      -99.90      -99.90      -99.90      -99.90      -99.90      -99.90      -99.90      -99.90    
       -99.90      -99.90      -99.90      -99.90      -99.90      -99.90      -99.90      -99.90      -99.90      -99.90    
  40   -99.90      -99.90      -99.90      -99.90      -99.90      -99.90      -99.90      -99.90      -99.90      -99.90    
       -99.90      -99.90      -99.90      -99.90      -99.90      -99.90      -99.90      -99.90      -99.90      -99.90    
       -99.90      -99.90      -99.90      -99.90      -99.90      -99.90      -99.90      -99.90      -99.90      -99.90    
       -99.90      -99.90      -99.90      -99.90      -99.90      -99.90      -99.90      -99.90      -99.90      -99.90    
1
              HEAD IN LAYER   5 AT END OF TIME STEP   1 IN STRESS PERIOD    3
  ---------------------------------------------------------------------------

            1           2           3           4           5           6           7           8           9          10
           11          12          13          14          15          16          17          18          19          20
           21          22          23          24          25          26          27          28          29          30
           31          32          33          34          35          36          37          38          39          40
 ........................................................................................................................
   1    49.49       48.13      -99.90      -99.90      -99.90      -99.90      -99.90      -99.90      -99.90      -99.90    
       -99.90      -99.90      -99.90      -99.90      -99.90      -99.90      -99.90      -99.90      -99.90      -99.90    
       -99.90      -99.90      -99.90      -99.90      -99.90      -99.90      -99.90      -99.90      -99.90      -99.90    
       -99.90      -99.90      -99.90      -99.90      -99.90      -99.90      -99.90      -99.90      -99.90      -99.90    
   2    48.13       46.97      -99.90      -99.90      -99.90      -99.90      -99.90      -99.90      -99.90      -99.90    
       -99.90      -99.90      -99.90      -99.90      -99.90      -99.90      -99.90      -99.90      -99.90      -99.90    
       -99.90      -99.90      -99.90      -99.90      -99.90      -99.90      -99.90      -99.90      -99.90      -99.90    
       -99.90      -99.90      -99.90      -99.90      -99.90      -99.90      -99.90      -99.90      -99.90      -99.90    
   3   -99.90      -99.90      -99.90      -99.90      -99.90      -99.90      -99.90      -99.90      -99.90      -99.90    
       -99.90      -99.90      -99.90      -99.90      -99.90      -99.90      -99.90      -99.90      -99.90      -99.90    
       -99.90      -99.90      -99.90      -99.90      -99.90      -99.90      -99.90      -99.90      -99.90      -99.90    
       -99.90      -99.90      -99.90      -99.90      -99.90      -99.90      -99.90      -99.90      -99.90      -99.90    
   4   -99.90      -99.90      -99.90      -99.90      -99.90      -99.90      -99.90      -99.90      -99.90      -99.90    
       -99.90      -99.90      -99.90      -99.90      -99.90      -99.90      -99.90      -99.90      -99.90      -99.90    
       -99.90      -99.90      -99.90      -99.90      -99.90      -99.90      -99.90      -99.90      -99.90      -99.90    
       -99.90      -99.90      -99.90      -99.90      -99.90      -99.90      -99.90      -99.90      -99.90      -99.90    
   5   -99.90      -99.90      -99.90      -99.90      -99.90      -99.90      -99.90      -99.90      -99.90      -99.90    
       -99.90      -99.90      -99.90      -99.90      -99.90      -99.90      -99.90      -99.90      -99.90      -99.90    
       -99.90      -99.90      -99.90      -99.90      -99.90      -99.90      -99.90      -99.90      -99.90      -99.90    
       -99.90      -99.90      -99.90      -99.90      -99.90      -99.90      -99.90      -99.90      -99.90      -99.90    
   6   -99.90      -99.90      -99.90      -99.90      -99.90      -99.90      -99.90      -99.90      -99.90      -99.90    
       -99.90      -99.90      -99.90      -99.90      -99.90      -99.90      -99.90      -99.90      -99.90      -99.90    
       -99.90      -99.90      -99.90      -99.90      -99.90      -99.90      -99.90      -99.90      -99.90      -99.90    
       -99.90      -99.90      -99.90      -99.90      -99.90      -99.90      -99.90      -99.90      -99.90      -99.90    
   7   -99.90      -99.90      -99.90      -99.90      -99.90      -99.90      -99.90      -99.90      -99.90      -99.90    
       -99.90      -99.90      -99.90      -99.90      -99.90      -99.90      -99.90      -99.90      -99.90      -99.90    
       -99.90      -99.90      -99.90      -99.90      -99.90      -99.90      -99.90      -99.90      -99.90      -99.90    
       -99.90      -99.90      -99.90      -99.90      -99.90      -99.90      -99.90      -99.90      -99.90      -99.90    
   8   -99.90      -99.90      -99.90      -99.90      -99.90      -99.90      -99.90      -99.90      -99.90      -99.90    
       -99.90      -99.90      -99.90      -99.90      -99.90      -99.90      -99.90      -99.90      -99.90      -99.90    
       -99.90      -99.90      -99.90      -99.90      -99.90      -99.90      -99.90      -99.90      -99.90      -99.90    
       -99.90      -99.90      -99.90      -99.90      -99.90      -99.90      -99.90      -99.90      -99.90      -99.90    
   9   -99.90      -99.90      -99.90      -99.90      -99.90      -99.90      -99.90      -99.90      -99.90      -99.90    
       -99.90      -99.90      -99.90      -99.90      -99.90      -99.90      -99.90      -99.90      -99.90      -99.90    
       -99.90      -99.90      -99.90      -99.90      -99.90      -99.90      -99.90      -99.90      -99.90      -99.90    
       -99.90      -99.90      -99.90      -99.90      -99.90      -99.90      -99.90      -99.90      -99.90      -99.90    
  10   -99.90      -99.90      -99.90      -99.90      -99.90      -99.90      -99.90      -99.90      -99.90      -99.90    
       -99.90      -99.90      -99.90      -99.90      -99.90      -99.90      -99.90      -99.90      -99.90      -99.90    
       -99.90      -99.90      -99.90      -99.90      -99.90      -99.90      -99.90      -99.90      -99.90      -99.90    
       -99.90      -99.90      -99.90      -99.90      -99.90      -99.90      -99.90      -99.90      -99.90      -99.90    
  11   -99.90      -99.90      -99.90      -99.90      -99.90      -99.90      -99.90      -99.90      -99.90      -99.90    
       -99.90      -99.90      -99.90      -99.90      -99.90      -99.90      -99.90      -99.90      -99.90      -99.90    
       -99.90      -99.90      -99.90      -99.90      -99.90      -99.90      -99.90      -99.90      -99.90      -99.90    
       -99.90      -99.90      -99.90      -99.90      -99.90      -99.90      -99.90      -99.90      -99.90      -99.90    
  12   -99.90      -99.90      -99.90      -99.90      -99.90      -99.90      -99.90      -99.90      -99.90      -99.90    
       -99.90      -99.90      -99.90      -99.90      -99.90      -99.90      -99.90      -99.90      -99.90      -99.90    
       -99.90      -99.90      -99.90      -99.90      -99.90      -99.90      -99.90      -99.90      -99.90      -99.90    
       -99.90      -99.90      -99.90      -99.90      -99.90      -99.90      -99.90      -99.90      -99.90      -99.90    
  13   -99.90      -99.90      -99.90      -99.90      -99.90      -99.90      -99.90      -99.90      -99.90      -99.90    
       -99.90      -99.90      -99.90      -99.90      -99.90      -99.90      -99.90      -99.90      -99.90      -99.90    
       -99.90      -99.90      -99.90      -99.90      -99.90      -99.90      -99.90      -99.90      -99.90      -99.90    
       -99.90      -99.90      -99.90      -99.90      -99.90      -99.90      -99.90      -99.90      -99.90      -99.90    
  14   -99.90      -99.90      -99.90      -99.90      -99.90      -99.90      -99.90      -99.90      -99.90      -99.90    
       -99.90      -99.90      -99.90      -99.90      -99.90      -99.90      -99.90      -99.90      -99.90      -99.90    
       -99.90      -99.90      -99.90      -99.90      -99.90      -99.90      -99.90      -99.90      -99.90      -99.90    
       -99.90      -99.90      -99.90      -99.90      -99.90      -99.90      -99.90      -99.90      -99.90      -99.90    
  15   -99.90      -99.90      -99.90      -99.90      -99.90      -99.90      -99.90      -99.90      -99.90      -99.90    
       -99.90      -99.90      -99.90      -99.90      -99.90      -99.90      -99.90      -99.90      -99.90      -99.90    
       -99.90      -99.90      -99.90      -99.90      -99.90      -99.90      -99.90      -99.90      -99.90      -99.90    
       -99.90      -99.90      -99.90      -99.90      -99.90      -99.90      -99.90      -99.90      -99.90      -99.90    
  16   -99.90      -99.90      -99.90      -99.90      -99.90      -99.90      -99.90      -99.90      -99.90      -99.90    
       -99.90      -99.90      -99.90      -99.90      -99.90      -99.90      -99.90      -99.90      -99.90      -99.90    
       -99.90      -99.90      -99.90      -99.90      -99.90      -99.90      -99.90      -99.90      -99.90      -99.90    
       -99.90      -99.90      -99.90      -99.90      -99.90      -99.90      -99.90      -99.90      -99.90      -99.90    
  17   -99.90      -99.90      -99.90      -99.90      -99.90      -99.90      -99.90      -99.90      -99.90      -99.90    
       -99.90      -99.90      -99.90      -99.90      -99.90      -99.90      -99.90      -99.90      -99.90      -99.90    
       -99.90      -99.90      -99.90      -99.90      -99.90      -99.90      -99.90      -99.90      -99.90      -99.90    
       -99.90      -99.90      -99.90      -99.90      -99.90      -99.90      -99.90      -99.90      -99.90      -99.90    
  18   -99.90      -99.90      -99.90      -99.90      -99.90      -99.90      -99.90      -99.90      -99.90      -99.90    
       -99.90      -99.90      -99.90      -99.90      -99.90      -99.90      -99.90      -99.90      -99.90      -99.90    
       -99.90      -99.90      -99.90      -99.90      -99.90      -99.90      -99.90      -99.90      -99.90      -99.90    
       -99.90      -99.90      -99.90      -99.90      -99.90      -99.90      -99.90      -99.90      -99.90      -99.90    
  19   -99.90      -99.90      -99.90      -99.90      -99.90      -99.90      -99.90      -99.90      -99.90      -99.90    
       -99.90      -99.90      -99.90      -99.90      -99.90      -99.90      -99.90      -99.90      -99.90      -99.90    
       -99.90      -99.90      -99.90      -99.90      -99.90      -99.90      -99.90      -99.90      -99.90      -99.90    
       -99.90      -99.90      -99.90      -99.90      -99.90      -99.90      -99.90      -99.90      -99.90      -99.90    
  20   -99.90      -99.90      -99.90      -99.90      -99.90      -99.90      -99.90      -99.90      -99.90      -99.90    
       -99.90      -99.90      -99.90      -99.90      -99.90      -99.90      -99.90      -99.90      -99.90      -99.90    
       -99.90      -99.90      -99.90      -99.90      -99.90      -99.90      -99.90      -99.90      -99.90      -99.90    
       -99.90      -99.90      -99.90      -99.90      -99.90      -99.90      -99.90      -99.90      -99.90      -99.90    
  21   -99.90      -99.90      -99.90      -99.90      -99.90      -99.90      -99.90      -99.90      -99.90      -99.90    
       -99.90      -99.90      -99.90      -99.90      -99.90      -99.90      -99.90      -99.90      -99.90      -99.90    
       -99.90      -99.90      -99.90      -99.90      -99.90      -99.90      -99.90      -99.90      -99.90      -99.90    
       -99.90      -99.90      -99.90      -99.90      -99.90      -99.90      -99.90      -99.90      -99.90      -99.90    
  22   -99.90      -99.90      -99.90      -99.90      -99.90      -99.90      -99.90      -99.90      -99.90      -99.90    
       -99.90      -99.90      -99.90      -99.90      -99.90      -99.90      -99.90      -99.90      -99.90      -99.90    
       -99.90      -99.90      -99.90      -99.90      -99.90      -99.90      -99.90      -99.90      -99.90      -99.90    
       -99.90      -99.90      -99.90      -99.90      -99.90      -99.90      -99.90      -99.90      -99.90      -99.90    
  23   -99.90      -99.90      -99.90      -99.90      -99.90      -99.90      -99.90      -99.90      -99.90      -99.90    
       -99.90      -99.90      -99.90      -99.90      -99.90      -99.90      -99.90      -99.90      -99.90      -99.90    
       -99.90      -99.90      -99.90      -99.90      -99.90      -99.90      -99.90      -99.90      -99.90      -99.90    
       -99.90      -99.90      -99.90      -99.90      -99.90      -99.90      -99.90      -99.90      -99.90      -99.90    
  24   -99.90      -99.90      -99.90      -99.90      -99.90      -99.90      -99.90      -99.90      -99.90      -99.90    
       -99.90      -99.90      -99.90      -99.90      -99.90      -99.90      -99.90      -99.90      -99.90      -99.90    
       -99.90      -99.90      -99.90      -99.90      -99.90      -99.90      -99.90      -99.90      -99.90      -99.90    
       -99.90      -99.90      -99.90      -99.90      -99.90      -99.90      -99.90      -99.90      -99.90      -99.90    
  25   -99.90      -99.90      -99.90      -99.90      -99.90      -99.90      -99.90      -99.90      -99.90      -99.90    
       -99.90      -99.90      -99.90      -99.90      -99.90      -99.90      -99.90      -99.90      -99.90      -99.90    
       -99.90      -99.90      -99.90      -99.90      -99.90      -99.90      -99.90      -99.90      -99.90      -99.90    
       -99.90      -99.90      -99.90      -99.90      -99.90      -99.90      -99.90      -99.90      -99.90      -99.90    
  26   -99.90      -99.90      -99.90      -99.90      -99.90      -99.90      -99.90      -99.90      -99.90      -99.90    
       -99.90      -99.90      -99.90      -99.90      -99.90      -99.90      -99.90      -99.90      -99.90      -99.90    
       -99.90      -99.90      -99.90      -99.90      -99.90      -99.90      -99.90      -99.90      -99.90      -99.90    
       -99.90      -99.90      -99.90      -99.90      -99.90      -99.90      -99.90      -99.90      -99.90      -99.90    
  27   -99.90      -99.90      -99.90      -99.90      -99.90      -99.90      -99.90      -99.90      -99.90      -99.90    
       -99.90      -99.90      -99.90      -99.90      -99.90      -99.90      -99.90      -99.90      -99.90      -99.90    
       -99.90      -99.90      -99.90      -99.90      -99.90      -99.90      -99.90      -99.90      -99.90      -99.90    
       -99.90      -99.90      -99.90      -99.90      -99.90      -99.90      -99.90      -99.90      -99.90      -99.90    
  28   -99.90      -99.90      -99.90      -99.90      -99.90      -99.90      -99.90      -99.90      -99.90      -99.90    
       -99.90      -99.90      -99.90      -99.90      -99.90      -99.90      -99.90      -99.90      -99.90      -99.90    
       -99.90      -99.90      -99.90      -99.90      -99.90      -99.90      -99.90      -99.90      -99.90      -99.90    
       -99.90      -99.90      -99.90      -99.90      -99.90      -99.90      -99.90      -99.90      -99.90      -99.90    
  29   -99.90      -99.90      -99.90      -99.90      -99.90      -99.90      -99.90      -99.90      -99.90      -99.90    
       -99.90      -99.90      -99.90      -99.90      -99.90      -99.90      -99.90      -99.90      -99.90      -99.90    
       -99.90      -99.90      -99.90      -99.90      -99.90      -99.90      -99.90      -99.90      -99.90      -99.90    
       -99.90      -99.90      -99.90      -99.90      -99.90      -99.90      -99.90      -99.90      -99.90      -99.90    
  30   -99.90      -99.90      -99.90      -99.90      -99.90      -99.90      -99.90      -99.90      -99.90      -99.90    
       -99.90      -99.90      -99.90      -99.90      -99.90      -99.90      -99.90      -99.90      -99.90      -99.90    
       -99.90      -99.90      -99.90      -99.90      -99.90      -99.90      -99.90      -99.90      -99.90      -99.90    
       -99.90      -99.90      -99.90      -99.90      -99.90      -99.90      -99.90      -99.90      -99.90      -99.90    
  31   -99.90      -99.90      -99.90      -99.90      -99.90      -99.90      -99.90      -99.90      -99.90      -99.90    
       -99.90      -99.90      -99.90      -99.90      -99.90      -99.90      -99.90      -99.90      -99.90      -99.90    
       -99.90      -99.90      -99.90      -99.90      -99.90      -99.90      -99.90      -99.90      -99.90      -99.90    
       -99.90      -99.90      -99.90      -99.90      -99.90      -99.90      -99.90      -99.90      -99.90      -99.90    
  32   -99.90      -99.90      -99.90      -99.90      -99.90      -99.90      -99.90      -99.90      -99.90      -99.90    
       -99.90      -99.90      -99.90      -99.90      -99.90      -99.90      -99.90      -99.90      -99.90      -99.90    
       -99.90      -99.90      -99.90      -99.90      -99.90      -99.90      -99.90      -99.90      -99.90      -99.90    
       -99.90      -99.90      -99.90      -99.90      -99.90      -99.90      -99.90      -99.90      -99.90      -99.90    
  33   -99.90      -99.90      -99.90      -99.90      -99.90      -99.90      -99.90      -99.90      -99.90      -99.90    
       -99.90      -99.90      -99.90      -99.90      -99.90      -99.90      -99.90      -99.90      -99.90      -99.90    
       -99.90      -99.90      -99.90      -99.90      -99.90      -99.90      -99.90      -99.90      -99.90      -99.90    
       -99.90      -99.90      -99.90      -99.90      -99.90      -99.90      -99.90      -99.90      -99.90      -99.90    
  34   -99.90      -99.90      -99.90      -99.90      -99.90      -99.90      -99.90      -99.90      -99.90      -99.90    
       -99.90      -99.90      -99.90      -99.90      -99.90      -99.90      -99.90      -99.90      -99.90      -99.90    
       -99.90      -99.90      -99.90      -99.90      -99.90      -99.90      -99.90      -99.90      -99.90      -99.90    
       -99.90      -99.90      -99.90      -99.90      -99.90      -99.90      -99.90      -99.90      -99.90      -99.90    
  35   -99.90      -99.90      -99.90      -99.90      -99.90      -99.90      -99.90      -99.90      -99.90      -99.90    
       -99.90      -99.90      -99.90      -99.90      -99.90      -99.90      -99.90      -99.90      -99.90      -99.90    
       -99.90      -99.90      -99.90      -99.90      -99.90      -99.90      -99.90      -99.90      -99.90      -99.90    
       -99.90      -99.90      -99.90      -99.90      -99.90      -99.90      -99.90      -99.90      -99.90      -99.90    
  36   -99.90      -99.90      -99.90      -99.90      -99.90      -99.90      -99.90      -99.90      -99.90      -99.90    
       -99.90      -99.90      -99.90      -99.90      -99.90      -99.90      -99.90      -99.90      -99.90      -99.90    
       -99.90      -99.90      -99.90      -99.90      -99.90      -99.90      -99.90      -99.90      -99.90      -99.90    
       -99.90      -99.90      -99.90      -99.90      -99.90      -99.90      -99.90      -99.90      -99.90      -99.90    
  37   -99.90      -99.90      -99.90      -99.90      -99.90      -99.90      -99.90      -99.90      -99.90      -99.90    
       -99.90      -99.90      -99.90      -99.90      -99.90      -99.90      -99.90      -99.90      -99.90      -99.90    
       -99.90      -99.90      -99.90      -99.90      -99.90      -99.90      -99.90      -99.90      -99.90      -99.90    
       -99.90      -99.90      -99.90      -99.90      -99.90      -99.90      -99.90      -99.90      -99.90      -99.90    
  38   -99.90      -99.90      -99.90      -99.90      -99.90      -99.90      -99.90      -99.90      -99.90      -99.90    
       -99.90      -99.90      -99.90      -99.90      -99.90      -99.90      -99.90      -99.90      -99.90      -99.90    
       -99.90      -99.90      -99.90      -99.90      -99.90      -99.90      -99.90      -99.90      -99.90      -99.90    
       -99.90      -99.90      -99.90      -99.90      -99.90      -99.90      -99.90      -99.90      -99.90      -99.90    
  39   -99.90      -99.90      -99.90      -99.90      -99.90      -99.90      -99.90      -99.90      -99.90      -99.90    
       -99.90      -99.90      -99.90      -99.90      -99.90      -99.90      -99.90      -99.90      -99.90      -99.90    
       -99.90      -99.90      -99.90      -99.90      -99.90      -99.90      -99.90      -99.90      -99.90      -99.90    
       -99.90      -99.90      -99.90      -99.90      -99.90      -99.90      -99.90      -99.90      -99.90      -99.90    
  40   -99.90      -99.90      -99.90      -99.90      -99.90      -99.90      -99.90      -99.90      -99.90      -99.90    
       -99.90      -99.90      -99.90      -99.90      -99.90      -99.90      -99.90      -99.90      -99.90      -99.90    
       -99.90      -99.90      -99.90      -99.90      -99.90      -99.90      -99.90      -99.90      -99.90      -99.90    
       -99.90      -99.90      -99.90      -99.90      -99.90      -99.90      -99.90      -99.90      -99.90      -99.90    
1
              HEAD IN LAYER   6 AT END OF TIME STEP   1 IN STRESS PERIOD    3
  ---------------------------------------------------------------------------

            1           2           3           4           5           6           7           8           9          10
           11          12          13          14          15          16          17          18          19          20
           21          22          23          24          25          26          27          28          29          30
           31          32          33          34          35          36          37          38          39          40
 ........................................................................................................................
   1    48.57       47.14       40.84      -99.90      -99.90      -99.90      -99.90      -99.90      -99.90      -99.90    
       -99.90      -99.90      -99.90      -99.90      -99.90      -99.90      -99.90      -99.90      -99.90      -99.90    
       -99.90      -99.90      -99.90      -99.90      -99.90      -99.90      -99.90      -99.90      -99.90      -99.90    
       -99.90      -99.90      -99.90      -99.90      -99.90      -99.90      -99.90      -99.90      -99.90      -99.90    
   2    47.14       45.96      -99.90      -99.90      -99.90      -99.90      -99.90      -99.90      -99.90      -99.90    
       -99.90      -99.90      -99.90      -99.90      -99.90      -99.90      -99.90      -99.90      -99.90      -99.90    
       -99.90      -99.90      -99.90      -99.90      -99.90      -99.90      -99.90      -99.90      -99.90      -99.90    
       -99.90      -99.90      -99.90      -99.90      -99.90      -99.90      -99.90      -99.90      -99.90      -99.90    
   3    40.84      -99.90      -99.90      -99.90      -99.90      -99.90      -99.90      -99.90      -99.90      -99.90    
       -99.90      -99.90      -99.90      -99.90      -99.90      -99.90      -99.90      -99.90      -99.90      -99.90    
       -99.90      -99.90      -99.90      -99.90      -99.90      -99.90      -99.90      -99.90      -99.90      -99.90    
       -99.90      -99.90      -99.90      -99.90      -99.90      -99.90      -99.90      -99.90      -99.90      -99.90    
   4   -99.90      -99.90      -99.90      -99.90      -99.90      -99.90      -99.90      -99.90      -99.90      -99.90    
       -99.90      -99.90      -99.90      -99.90      -99.90      -99.90      -99.90      -99.90      -99.90      -99.90    
       -99.90      -99.90      -99.90      -99.90      -99.90      -99.90      -99.90      -99.90      -99.90      -99.90    
       -99.90      -99.90      -99.90      -99.90      -99.90      -99.90      -99.90      -99.90      -99.90      -99.90    
   5   -99.90      -99.90      -99.90      -99.90      -99.90      -99.90      -99.90      -99.90      -99.90      -99.90    
       -99.90      -99.90      -99.90      -99.90      -99.90      -99.90      -99.90      -99.90      -99.90      -99.90    
       -99.90      -99.90      -99.90      -99.90      -99.90      -99.90      -99.90      -99.90      -99.90      -99.90    
       -99.90      -99.90      -99.90      -99.90      -99.90      -99.90      -99.90      -99.90      -99.90      -99.90    
   6   -99.90      -99.90      -99.90      -99.90      -99.90      -99.90      -99.90      -99.90      -99.90      -99.90    
       -99.90      -99.90      -99.90      -99.90      -99.90      -99.90      -99.90      -99.90      -99.90      -99.90    
       -99.90      -99.90      -99.90      -99.90      -99.90      -99.90      -99.90      -99.90      -99.90      -99.90    
       -99.90      -99.90      -99.90      -99.90      -99.90      -99.90      -99.90      -99.90      -99.90      -99.90    
   7   -99.90      -99.90      -99.90      -99.90      -99.90      -99.90      -99.90      -99.90      -99.90      -99.90    
       -99.90      -99.90      -99.90      -99.90      -99.90      -99.90      -99.90      -99.90      -99.90      -99.90    
       -99.90      -99.90      -99.90      -99.90      -99.90      -99.90      -99.90      -99.90      -99.90      -99.90    
       -99.90      -99.90      -99.90      -99.90      -99.90      -99.90      -99.90      -99.90      -99.90      -99.90    
   8   -99.90      -99.90      -99.90      -99.90      -99.90      -99.90      -99.90      -99.90      -99.90      -99.90    
       -99.90      -99.90      -99.90      -99.90      -99.90      -99.90      -99.90      -99.90      -99.90      -99.90    
       -99.90      -99.90      -99.90      -99.90      -99.90      -99.90      -99.90      -99.90      -99.90      -99.90    
       -99.90      -99.90      -99.90      -99.90      -99.90      -99.90      -99.90      -99.90      -99.90      -99.90    
   9   -99.90      -99.90      -99.90      -99.90      -99.90      -99.90      -99.90      -99.90      -99.90      -99.90    
       -99.90      -99.90      -99.90      -99.90      -99.90      -99.90      -99.90      -99.90      -99.90      -99.90    
       -99.90      -99.90      -99.90      -99.90      -99.90      -99.90      -99.90      -99.90      -99.90      -99.90    
       -99.90      -99.90      -99.90      -99.90      -99.90      -99.90      -99.90      -99.90      -99.90      -99.90    
  10   -99.90      -99.90      -99.90      -99.90      -99.90      -99.90      -99.90      -99.90      -99.90      -99.90    
       -99.90      -99.90      -99.90      -99.90      -99.90      -99.90      -99.90      -99.90      -99.90      -99.90    
       -99.90      -99.90      -99.90      -99.90      -99.90      -99.90      -99.90      -99.90      -99.90      -99.90    
       -99.90      -99.90      -99.90      -99.90      -99.90      -99.90      -99.90      -99.90      -99.90      -99.90    
  11   -99.90      -99.90      -99.90      -99.90      -99.90      -99.90      -99.90      -99.90      -99.90      -99.90    
       -99.90      -99.90      -99.90      -99.90      -99.90      -99.90      -99.90      -99.90      -99.90      -99.90    
       -99.90      -99.90      -99.90      -99.90      -99.90      -99.90      -99.90      -99.90      -99.90      -99.90    
       -99.90      -99.90      -99.90      -99.90      -99.90      -99.90      -99.90      -99.90      -99.90      -99.90    
  12   -99.90      -99.90      -99.90      -99.90      -99.90      -99.90      -99.90      -99.90      -99.90      -99.90    
       -99.90      -99.90      -99.90      -99.90      -99.90      -99.90      -99.90      -99.90      -99.90      -99.90    
       -99.90      -99.90      -99.90      -99.90      -99.90      -99.90      -99.90      -99.90      -99.90      -99.90    
       -99.90      -99.90      -99.90      -99.90      -99.90      -99.90      -99.90      -99.90      -99.90      -99.90    
  13   -99.90      -99.90      -99.90      -99.90      -99.90      -99.90      -99.90      -99.90      -99.90      -99.90    
       -99.90      -99.90      -99.90      -99.90      -99.90      -99.90      -99.90      -99.90      -99.90      -99.90    
       -99.90      -99.90      -99.90      -99.90      -99.90      -99.90      -99.90      -99.90      -99.90      -99.90    
       -99.90      -99.90      -99.90      -99.90      -99.90      -99.90      -99.90      -99.90      -99.90      -99.90    
  14   -99.90      -99.90      -99.90      -99.90      -99.90      -99.90      -99.90      -99.90      -99.90      -99.90    
       -99.90      -99.90      -99.90      -99.90      -99.90      -99.90      -99.90      -99.90      -99.90      -99.90    
       -99.90      -99.90      -99.90      -99.90      -99.90      -99.90      -99.90      -99.90      -99.90      -99.90    
       -99.90      -99.90      -99.90      -99.90      -99.90      -99.90      -99.90      -99.90      -99.90      -99.90    
  15   -99.90      -99.90      -99.90      -99.90      -99.90      -99.90      -99.90      -99.90      -99.90      -99.90    
       -99.90      -99.90      -99.90      -99.90      -99.90      -99.90      -99.90      -99.90      -99.90      -99.90    
       -99.90      -99.90      -99.90      -99.90      -99.90      -99.90      -99.90      -99.90      -99.90      -99.90    
       -99.90      -99.90      -99.90      -99.90      -99.90      -99.90      -99.90      -99.90      -99.90      -99.90    
  16   -99.90      -99.90      -99.90      -99.90      -99.90      -99.90      -99.90      -99.90      -99.90      -99.90    
       -99.90      -99.90      -99.90      -99.90      -99.90      -99.90      -99.90      -99.90      -99.90      -99.90    
       -99.90      -99.90      -99.90      -99.90      -99.90      -99.90      -99.90      -99.90      -99.90      -99.90    
       -99.90      -99.90      -99.90      -99.90      -99.90      -99.90      -99.90      -99.90      -99.90      -99.90    
  17   -99.90      -99.90      -99.90      -99.90      -99.90      -99.90      -99.90      -99.90      -99.90      -99.90    
       -99.90      -99.90      -99.90      -99.90      -99.90      -99.90      -99.90      -99.90      -99.90      -99.90    
       -99.90      -99.90      -99.90      -99.90      -99.90      -99.90      -99.90      -99.90      -99.90      -99.90    
       -99.90      -99.90      -99.90      -99.90      -99.90      -99.90      -99.90      -99.90      -99.90      -99.90    
  18   -99.90      -99.90      -99.90      -99.90      -99.90      -99.90      -99.90      -99.90      -99.90      -99.90    
       -99.90      -99.90      -99.90      -99.90      -99.90      -99.90      -99.90      -99.90      -99.90      -99.90    
       -99.90      -99.90      -99.90      -99.90      -99.90      -99.90      -99.90      -99.90      -99.90      -99.90    
       -99.90      -99.90      -99.90      -99.90      -99.90      -99.90      -99.90      -99.90      -99.90      -99.90    
  19   -99.90      -99.90      -99.90      -99.90      -99.90      -99.90      -99.90      -99.90      -99.90      -99.90    
       -99.90      -99.90      -99.90      -99.90      -99.90      -99.90      -99.90      -99.90      -99.90      -99.90    
       -99.90      -99.90      -99.90      -99.90      -99.90      -99.90      -99.90      -99.90      -99.90      -99.90    
       -99.90      -99.90      -99.90      -99.90      -99.90      -99.90      -99.90      -99.90      -99.90      -99.90    
  20   -99.90      -99.90      -99.90      -99.90      -99.90      -99.90      -99.90      -99.90      -99.90      -99.90    
       -99.90      -99.90      -99.90      -99.90      -99.90      -99.90      -99.90      -99.90      -99.90      -99.90    
       -99.90      -99.90      -99.90      -99.90      -99.90      -99.90      -99.90      -99.90      -99.90      -99.90    
       -99.90      -99.90      -99.90      -99.90      -99.90      -99.90      -99.90      -99.90      -99.90      -99.90    
  21   -99.90      -99.90      -99.90      -99.90      -99.90      -99.90      -99.90      -99.90      -99.90      -99.90    
       -99.90      -99.90      -99.90      -99.90      -99.90      -99.90      -99.90      -99.90      -99.90      -99.90    
       -99.90      -99.90      -99.90      -99.90      -99.90      -99.90      -99.90      -99.90      -99.90      -99.90    
       -99.90      -99.90      -99.90      -99.90      -99.90      -99.90      -99.90      -99.90      -99.90      -99.90    
  22   -99.90      -99.90      -99.90      -99.90      -99.90      -99.90      -99.90      -99.90      -99.90      -99.90    
       -99.90      -99.90      -99.90      -99.90      -99.90      -99.90      -99.90      -99.90      -99.90      -99.90    
       -99.90      -99.90      -99.90      -99.90      -99.90      -99.90      -99.90      -99.90      -99.90      -99.90    
       -99.90      -99.90      -99.90      -99.90      -99.90      -99.90      -99.90      -99.90      -99.90      -99.90    
  23   -99.90      -99.90      -99.90      -99.90      -99.90      -99.90      -99.90      -99.90      -99.90      -99.90    
       -99.90      -99.90      -99.90      -99.90      -99.90      -99.90      -99.90      -99.90      -99.90      -99.90    
       -99.90      -99.90      -99.90      -99.90      -99.90      -99.90      -99.90      -99.90      -99.90      -99.90    
       -99.90      -99.90      -99.90      -99.90      -99.90      -99.90      -99.90      -99.90      -99.90      -99.90    
  24   -99.90      -99.90      -99.90      -99.90      -99.90      -99.90      -99.90      -99.90      -99.90      -99.90    
       -99.90      -99.90      -99.90      -99.90      -99.90      -99.90      -99.90      -99.90      -99.90      -99.90    
       -99.90      -99.90      -99.90      -99.90      -99.90      -99.90      -99.90      -99.90      -99.90      -99.90    
       -99.90      -99.90      -99.90      -99.90      -99.90      -99.90      -99.90      -99.90      -99.90      -99.90    
  25   -99.90      -99.90      -99.90      -99.90      -99.90      -99.90      -99.90      -99.90      -99.90      -99.90    
       -99.90      -99.90      -99.90      -99.90      -99.90      -99.90      -99.90      -99.90      -99.90      -99.90    
       -99.90      -99.90      -99.90      -99.90      -99.90      -99.90      -99.90      -99.90      -99.90      -99.90    
       -99.90      -99.90      -99.90      -99.90      -99.90      -99.90      -99.90      -99.90      -99.90      -99.90    
  26   -99.90      -99.90      -99.90      -99.90      -99.90      -99.90      -99.90      -99.90      -99.90      -99.90    
       -99.90      -99.90      -99.90      -99.90      -99.90      -99.90      -99.90      -99.90      -99.90      -99.90    
       -99.90      -99.90      -99.90      -99.90      -99.90      -99.90      -99.90      -99.90      -99.90      -99.90    
       -99.90      -99.90      -99.90      -99.90      -99.90      -99.90      -99.90      -99.90      -99.90      -99.90    
  27   -99.90      -99.90      -99.90      -99.90      -99.90      -99.90      -99.90      -99.90      -99.90      -99.90    
       -99.90      -99.90      -99.90      -99.90      -99.90      -99.90      -99.90      -99.90      -99.90      -99.90    
       -99.90      -99.90      -99.90      -99.90      -99.90      -99.90      -99.90      -99.90      -99.90      -99.90    
       -99.90      -99.90      -99.90      -99.90      -99.90      -99.90      -99.90      -99.90      -99.90      -99.90    
  28   -99.90      -99.90      -99.90      -99.90      -99.90      -99.90      -99.90      -99.90      -99.90      -99.90    
       -99.90      -99.90      -99.90      -99.90      -99.90      -99.90      -99.90      -99.90      -99.90      -99.90    
       -99.90      -99.90      -99.90      -99.90      -99.90      -99.90      -99.90      -99.90      -99.90      -99.90    
       -99.90      -99.90      -99.90      -99.90      -99.90      -99.90      -99.90      -99.90      -99.90      -99.90    
  29   -99.90      -99.90      -99.90      -99.90      -99.90      -99.90      -99.90      -99.90      -99.90      -99.90    
       -99.90      -99.90      -99.90      -99.90      -99.90      -99.90      -99.90      -99.90      -99.90      -99.90    
       -99.90      -99.90      -99.90      -99.90      -99.90      -99.90      -99.90      -99.90      -99.90      -99.90    
       -99.90      -99.90      -99.90      -99.90      -99.90      -99.90      -99.90      -99.90      -99.90      -99.90    
  30   -99.90      -99.90      -99.90      -99.90      -99.90      -99.90      -99.90      -99.90      -99.90      -99.90    
       -99.90      -99.90      -99.90      -99.90      -99.90      -99.90      -99.90      -99.90      -99.90      -99.90    
       -99.90      -99.90      -99.90      -99.90      -99.90      -99.90      -99.90      -99.90      -99.90      -99.90    
       -99.90      -99.90      -99.90      -99.90      -99.90      -99.90      -99.90      -99.90      -99.90      -99.90    
  31   -99.90      -99.90      -99.90      -99.90      -99.90      -99.90      -99.90      -99.90      -99.90      -99.90    
       -99.90      -99.90      -99.90      -99.90      -99.90      -99.90      -99.90      -99.90      -99.90      -99.90    
       -99.90      -99.90      -99.90      -99.90      -99.90      -99.90      -99.90      -99.90      -99.90      -99.90    
       -99.90      -99.90      -99.90      -99.90      -99.90      -99.90      -99.90      -99.90      -99.90      -99.90    
  32   -99.90      -99.90      -99.90      -99.90      -99.90      -99.90      -99.90      -99.90      -99.90      -99.90    
       -99.90      -99.90      -99.90      -99.90      -99.90      -99.90      -99.90      -99.90      -99.90      -99.90    
       -99.90      -99.90      -99.90      -99.90      -99.90      -99.90      -99.90      -99.90      -99.90      -99.90    
       -99.90      -99.90      -99.90      -99.90      -99.90      -99.90      -99.90      -99.90      -99.90      -99.90    
  33   -99.90      -99.90      -99.90      -99.90      -99.90      -99.90      -99.90      -99.90      -99.90      -99.90    
       -99.90      -99.90      -99.90      -99.90      -99.90      -99.90      -99.90      -99.90      -99.90      -99.90    
       -99.90      -99.90      -99.90      -99.90      -99.90      -99.90      -99.90      -99.90      -99.90      -99.90    
       -99.90      -99.90      -99.90      -99.90      -99.90      -99.90      -99.90      -99.90      -99.90      -99.90    
  34   -99.90      -99.90      -99.90      -99.90      -99.90      -99.90      -99.90      -99.90      -99.90      -99.90    
       -99.90      -99.90      -99.90      -99.90      -99.90      -99.90      -99.90      -99.90      -99.90      -99.90    
       -99.90      -99.90      -99.90      -99.90      -99.90      -99.90      -99.90      -99.90      -99.90      -99.90    
       -99.90      -99.90      -99.90      -99.90      -99.90      -99.90      -99.90      -99.90      -99.90      -99.90    
  35   -99.90      -99.90      -99.90      -99.90      -99.90      -99.90      -99.90      -99.90      -99.90      -99.90    
       -99.90      -99.90      -99.90      -99.90      -99.90      -99.90      -99.90      -99.90      -99.90      -99.90    
       -99.90      -99.90      -99.90      -99.90      -99.90      -99.90      -99.90      -99.90      -99.90      -99.90    
       -99.90      -99.90      -99.90      -99.90      -99.90      -99.90      -99.90      -99.90      -99.90      -99.90    
  36   -99.90      -99.90      -99.90      -99.90      -99.90      -99.90      -99.90      -99.90      -99.90      -99.90    
       -99.90      -99.90      -99.90      -99.90      -99.90      -99.90      -99.90      -99.90      -99.90      -99.90    
       -99.90      -99.90      -99.90      -99.90      -99.90      -99.90      -99.90      -99.90      -99.90      -99.90    
       -99.90      -99.90      -99.90      -99.90      -99.90      -99.90      -99.90      -99.90      -99.90      -99.90    
  37   -99.90      -99.90      -99.90      -99.90      -99.90      -99.90      -99.90      -99.90      -99.90      -99.90    
       -99.90      -99.90      -99.90      -99.90      -99.90      -99.90      -99.90      -99.90      -99.90      -99.90    
       -99.90      -99.90      -99.90      -99.90      -99.90      -99.90      -99.90      -99.90      -99.90      -99.90    
       -99.90      -99.90      -99.90      -99.90      -99.90      -99.90      -99.90      -99.90      -99.90      -99.90    
  38   -99.90      -99.90      -99.90      -99.90      -99.90      -99.90      -99.90      -99.90      -99.90      -99.90    
       -99.90      -99.90      -99.90      -99.90      -99.90      -99.90      -99.90      -99.90      -99.90      -99.90    
       -99.90      -99.90      -99.90      -99.90      -99.90      -99.90      -99.90      -99.90      -99.90      -99.90    
       -99.90      -99.90      -99.90      -99.90      -99.90      -99.90      -99.90      -99.90      -99.90      -99.90    
  39   -99.90      -99.90      -99.90      -99.90      -99.90      -99.90      -99.90      -99.90      -99.90      -99.90    
       -99.90      -99.90      -99.90      -99.90      -99.90      -99.90      -99.90      -99.90      -99.90      -99.90    
       -99.90      -99.90      -99.90      -99.90      -99.90      -99.90      -99.90      -99.90      -99.90      -99.90    
       -99.90      -99.90      -99.90      -99.90      -99.90      -99.90      -99.90      -99.90      -99.90      -99.90    
  40   -99.90      -99.90      -99.90      -99.90      -99.90      -99.90      -99.90      -99.90      -99.90      -99.90    
       -99.90      -99.90      -99.90      -99.90      -99.90      -99.90      -99.90      -99.90      -99.90      -99.90    
       -99.90      -99.90      -99.90      -99.90      -99.90      -99.90      -99.90      -99.90      -99.90      -99.90    
       -99.90      -99.90      -99.90      -99.90      -99.90      -99.90      -99.90      -99.90      -99.90      -99.90    
1
              HEAD IN LAYER   7 AT END OF TIME STEP   1 IN STRESS PERIOD    3
  ---------------------------------------------------------------------------

            1           2           3           4           5           6           7           8           9          10
           11          12          13          14          15          16          17          18          19          20
           21          22          23          24          25          26          27          28          29          30
           31          32          33          34          35          36          37          38          39          40
 ........................................................................................................................
   1    47.76       46.20       40.81       37.52      -99.90      -99.90      -99.90      -99.90      -99.90      -99.90    
       -99.90      -99.90      -99.90      -99.90      -99.90      -99.90      -99.90      -99.90      -99.90      -99.90    
       -99.90      -99.90      -99.90      -99.90      -99.90      -99.90      -99.90      -99.90      -99.90      -99.90    
       -99.90      -99.90      -99.90      -99.90      -99.90      -99.90      -99.90      -99.90      -99.90      -99.90    
   2    46.20       44.88       39.73       36.81      -99.90      -99.90      -99.90      -99.90      -99.90      -99.90    
       -99.90      -99.90      -99.90      -99.90      -99.90      -99.90      -99.90      -99.90      -99.90      -99.90    
       -99.90      -99.90      -99.90      -99.90      -99.90      -99.90      -99.90      -99.90      -99.90      -99.90    
       -99.90      -99.90      -99.90      -99.90      -99.90      -99.90      -99.90      -99.90      -99.90      -99.90    
   3    40.81       39.73       37.63       35.52      -99.90      -99.90      -99.90      -99.90      -99.90      -99.90    
       -99.90      -99.90      -99.90      -99.90      -99.90      -99.90      -99.90      -99.90      -99.90      -99.90    
       -99.90      -99.90      -99.90      -99.90      -99.90      -99.90      -99.90      -99.90      -99.90      -99.90    
       -99.90      -99.90      -99.90      -99.90      -99.90      -99.90      -99.90      -99.90      -99.90      -99.90    
   4    37.52       36.81       35.52      -99.90      -99.90      -99.90      -99.90      -99.90      -99.90      -99.90    
       -99.90      -99.90      -99.90      -99.90      -99.90      -99.90      -99.90      -99.90      -99.90      -99.90    
       -99.90      -99.90      -99.90      -99.90      -99.90      -99.90      -99.90      -99.90      -99.90      -99.90    
       -99.90      -99.90      -99.90      -99.90      -99.90      -99.90      -99.90      -99.90      -99.90      -99.90    
   5   -99.90      -99.90      -99.90      -99.90      -99.90      -99.90      -99.90      -99.90      -99.90      -99.90    
       -99.90      -99.90      -99.90      -99.90      -99.90      -99.90      -99.90      -99.90      -99.90      -99.90    
       -99.90      -99.90      -99.90      -99.90      -99.90      -99.90      -99.90      -99.90      -99.90      -99.90    
       -99.90      -99.90      -99.90      -99.90      -99.90      -99.90      -99.90      -99.90      -99.90      -99.90    
   6   -99.90      -99.90      -99.90      -99.90      -99.90      -99.90      -99.90      -99.90      -99.90      -99.90    
       -99.90      -99.90      -99.90      -99.90      -99.90      -99.90      -99.90      -99.90      -99.90      -99.90    
       -99.90      -99.90      -99.90      -99.90      -99.90      -99.90      -99.90      -99.90      -99.90      -99.90    
       -99.90      -99.90      -99.90      -99.90      -99.90      -99.90      -99.90      -99.90      -99.90      -99.90    
   7   -99.90      -99.90      -99.90      -99.90      -99.90      -99.90      -99.90      -99.90      -99.90      -99.90    
       -99.90      -99.90      -99.90      -99.90      -99.90      -99.90      -99.90      -99.90      -99.90      -99.90    
       -99.90      -99.90      -99.90      -99.90      -99.90      -99.90      -99.90      -99.90      -99.90      -99.90    
       -99.90      -99.90      -99.90      -99.90      -99.90      -99.90      -99.90      -99.90      -99.90      -99.90    
   8   -99.90      -99.90      -99.90      -99.90      -99.90      -99.90      -99.90      -99.90      -99.90      -99.90    
       -99.90      -99.90      -99.90      -99.90      -99.90      -99.90      -99.90      -99.90      -99.90      -99.90    
       -99.90      -99.90      -99.90      -99.90      -99.90      -99.90      -99.90      -99.90      -99.90      -99.90    
       -99.90      -99.90      -99.90      -99.90      -99.90      -99.90      -99.90      -99.90      -99.90      -99.90    
   9   -99.90      -99.90      -99.90      -99.90      -99.90      -99.90      -99.90      -99.90      -99.90      -99.90    
       -99.90      -99.90      -99.90      -99.90      -99.90      -99.90      -99.90      -99.90      -99.90      -99.90    
       -99.90      -99.90      -99.90      -99.90      -99.90      -99.90      -99.90      -99.90      -99.90      -99.90    
       -99.90      -99.90      -99.90      -99.90      -99.90      -99.90      -99.90      -99.90      -99.90      -99.90    
  10   -99.90      -99.90      -99.90      -99.90      -99.90      -99.90      -99.90      -99.90      -99.90      -99.90    
       -99.90      -99.90      -99.90      -99.90      -99.90      -99.90      -99.90      -99.90      -99.90      -99.90    
       -99.90      -99.90      -99.90      -99.90      -99.90      -99.90      -99.90      -99.90      -99.90      -99.90    
       -99.90      -99.90      -99.90      -99.90      -99.90      -99.90      -99.90      -99.90      -99.90      -99.90    
  11   -99.90      -99.90      -99.90      -99.90      -99.90      -99.90      -99.90      -99.90      -99.90      -99.90    
       -99.90      -99.90      -99.90      -99.90      -99.90      -99.90      -99.90      -99.90      -99.90      -99.90    
       -99.90      -99.90      -99.90      -99.90      -99.90      -99.90      -99.90      -99.90      -99.90      -99.90    
       -99.90      -99.90      -99.90      -99.90      -99.90      -99.90      -99.90      -99.90      -99.90      -99.90    
  12   -99.90      -99.90      -99.90      -99.90      -99.90      -99.90      -99.90      -99.90      -99.90      -99.90    
       -99.90      -99.90      -99.90      -99.90      -99.90      -99.90      -99.90      -99.90      -99.90      -99.90    
       -99.90      -99.90      -99.90      -99.90      -99.90      -99.90      -99.90      -99.90      -99.90      -99.90    
       -99.90      -99.90      -99.90      -99.90      -99.90      -99.90      -99.90      -99.90      -99.90      -99.90    
  13   -99.90      -99.90      -99.90      -99.90      -99.90      -99.90      -99.90      -99.90      -99.90      -99.90    
       -99.90      -99.90      -99.90      -99.90      -99.90      -99.90      -99.90      -99.90      -99.90      -99.90    
       -99.90      -99.90      -99.90      -99.90      -99.90      -99.90      -99.90      -99.90      -99.90      -99.90    
       -99.90      -99.90      -99.90      -99.90      -99.90      -99.90      -99.90      -99.90      -99.90      -99.90    
  14   -99.90      -99.90      -99.90      -99.90      -99.90      -99.90      -99.90      -99.90      -99.90      -99.90    
       -99.90      -99.90      -99.90      -99.90      -99.90      -99.90      -99.90      -99.90      -99.90      -99.90    
       -99.90      -99.90      -99.90      -99.90      -99.90      -99.90      -99.90      -99.90      -99.90      -99.90    
       -99.90      -99.90      -99.90      -99.90      -99.90      -99.90      -99.90      -99.90      -99.90      -99.90    
  15   -99.90      -99.90      -99.90      -99.90      -99.90      -99.90      -99.90      -99.90      -99.90      -99.90    
       -99.90      -99.90      -99.90      -99.90      -99.90      -99.90      -99.90      -99.90      -99.90      -99.90    
       -99.90      -99.90      -99.90      -99.90      -99.90      -99.90      -99.90      -99.90      -99.90      -99.90    
       -99.90      -99.90      -99.90      -99.90      -99.90      -99.90      -99.90      -99.90      -99.90      -99.90    
  16   -99.90      -99.90      -99.90      -99.90      -99.90      -99.90      -99.90      -99.90      -99.90      -99.90    
       -99.90      -99.90      -99.90      -99.90      -99.90      -99.90      -99.90      -99.90      -99.90      -99.90    
       -99.90      -99.90      -99.90      -99.90      -99.90      -99.90      -99.90      -99.90      -99.90      -99.90    
       -99.90      -99.90      -99.90      -99.90      -99.90      -99.90      -99.90      -99.90      -99.90      -99.90    
  17   -99.90      -99.90      -99.90      -99.90      -99.90      -99.90      -99.90      -99.90      -99.90      -99.90    
       -99.90      -99.90      -99.90      -99.90      -99.90      -99.90      -99.90      -99.90      -99.90      -99.90    
       -99.90      -99.90      -99.90      -99.90      -99.90      -99.90      -99.90      -99.90      -99.90      -99.90    
       -99.90      -99.90      -99.90      -99.90      -99.90      -99.90      -99.90      -99.90      -99.90      -99.90    
  18   -99.90      -99.90      -99.90      -99.90      -99.90      -99.90      -99.90      -99.90      -99.90      -99.90    
       -99.90      -99.90      -99.90      -99.90      -99.90      -99.90      -99.90      -99.90      -99.90      -99.90    
       -99.90      -99.90      -99.90      -99.90      -99.90      -99.90      -99.90      -99.90      -99.90      -99.90    
       -99.90      -99.90      -99.90      -99.90      -99.90      -99.90      -99.90      -99.90      -99.90      -99.90    
  19   -99.90      -99.90      -99.90      -99.90      -99.90      -99.90      -99.90      -99.90      -99.90      -99.90    
       -99.90      -99.90      -99.90      -99.90      -99.90      -99.90      -99.90      -99.90      -99.90      -99.90    
       -99.90      -99.90      -99.90      -99.90      -99.90      -99.90      -99.90      -99.90      -99.90      -99.90    
       -99.90      -99.90      -99.90      -99.90      -99.90      -99.90      -99.90      -99.90      -99.90      -99.90    
  20   -99.90      -99.90      -99.90      -99.90      -99.90      -99.90      -99.90      -99.90      -99.90      -99.90    
       -99.90      -99.90      -99.90      -99.90      -99.90      -99.90      -99.90      -99.90      -99.90      -99.90    
       -99.90      -99.90      -99.90      -99.90      -99.90      -99.90      -99.90      -99.90      -99.90      -99.90    
       -99.90      -99.90      -99.90      -99.90      -99.90      -99.90      -99.90      -99.90      -99.90      -99.90    
  21   -99.90      -99.90      -99.90      -99.90      -99.90      -99.90      -99.90      -99.90      -99.90      -99.90    
       -99.90      -99.90      -99.90      -99.90      -99.90      -99.90      -99.90      -99.90      -99.90      -99.90    
       -99.90      -99.90      -99.90      -99.90      -99.90      -99.90      -99.90      -99.90      -99.90      -99.90    
       -99.90      -99.90      -99.90      -99.90      -99.90      -99.90      -99.90      -99.90      -99.90      -99.90    
  22   -99.90      -99.90      -99.90      -99.90      -99.90      -99.90      -99.90      -99.90      -99.90      -99.90    
       -99.90      -99.90      -99.90      -99.90      -99.90      -99.90      -99.90      -99.90      -99.90      -99.90    
       -99.90      -99.90      -99.90      -99.90      -99.90      -99.90      -99.90      -99.90      -99.90      -99.90    
       -99.90      -99.90      -99.90      -99.90      -99.90      -99.90      -99.90      -99.90      -99.90      -99.90    
  23   -99.90      -99.90      -99.90      -99.90      -99.90      -99.90      -99.90      -99.90      -99.90      -99.90    
       -99.90      -99.90      -99.90      -99.90      -99.90      -99.90      -99.90      -99.90      -99.90      -99.90    
       -99.90      -99.90      -99.90      -99.90      -99.90      -99.90      -99.90      -99.90      -99.90      -99.90    
       -99.90      -99.90      -99.90      -99.90      -99.90      -99.90      -99.90      -99.90      -99.90      -99.90    
  24   -99.90      -99.90      -99.90      -99.90      -99.90      -99.90      -99.90      -99.90      -99.90      -99.90    
       -99.90      -99.90      -99.90      -99.90      -99.90      -99.90      -99.90      -99.90      -99.90      -99.90    
       -99.90      -99.90      -99.90      -99.90      -99.90      -99.90      -99.90      -99.90      -99.90      -99.90    
       -99.90      -99.90      -99.90      -99.90      -99.90      -99.90      -99.90      -99.90      -99.90      -99.90    
  25   -99.90      -99.90      -99.90      -99.90      -99.90      -99.90      -99.90      -99.90      -99.90      -99.90    
       -99.90      -99.90      -99.90      -99.90      -99.90      -99.90      -99.90      -99.90      -99.90      -99.90    
       -99.90      -99.90      -99.90      -99.90      -99.90      -99.90      -99.90      -99.90      -99.90      -99.90    
       -99.90      -99.90      -99.90      -99.90      -99.90      -99.90      -99.90      -99.90      -99.90      -99.90    
  26   -99.90      -99.90      -99.90      -99.90      -99.90      -99.90      -99.90      -99.90      -99.90      -99.90    
       -99.90      -99.90      -99.90      -99.90      -99.90      -99.90      -99.90      -99.90      -99.90      -99.90    
       -99.90      -99.90      -99.90      -99.90      -99.90      -99.90      -99.90      -99.90      -99.90      -99.90    
       -99.90      -99.90      -99.90      -99.90      -99.90      -99.90      -99.90      -99.90      -99.90      -99.90    
  27   -99.90      -99.90      -99.90      -99.90      -99.90      -99.90      -99.90      -99.90      -99.90      -99.90    
       -99.90      -99.90      -99.90      -99.90      -99.90      -99.90      -99.90      -99.90      -99.90      -99.90    
       -99.90      -99.90      -99.90      -99.90      -99.90      -99.90      -99.90      -99.90      -99.90      -99.90    
       -99.90      -99.90      -99.90      -99.90      -99.90      -99.90      -99.90      -99.90      -99.90      -99.90    
  28   -99.90      -99.90      -99.90      -99.90      -99.90      -99.90      -99.90      -99.90      -99.90      -99.90    
       -99.90      -99.90      -99.90      -99.90      -99.90      -99.90      -99.90      -99.90      -99.90      -99.90    
       -99.90      -99.90      -99.90      -99.90      -99.90      -99.90      -99.90      -99.90      -99.90      -99.90    
       -99.90      -99.90      -99.90      -99.90      -99.90      -99.90      -99.90      -99.90      -99.90      -99.90    
  29   -99.90      -99.90      -99.90      -99.90      -99.90      -99.90      -99.90      -99.90      -99.90      -99.90    
       -99.90      -99.90      -99.90      -99.90      -99.90      -99.90      -99.90      -99.90      -99.90      -99.90    
       -99.90      -99.90      -99.90      -99.90      -99.90      -99.90      -99.90      -99.90      -99.90      -99.90    
       -99.90      -99.90      -99.90      -99.90      -99.90      -99.90      -99.90      -99.90      -99.90      -99.90    
  30   -99.90      -99.90      -99.90      -99.90      -99.90      -99.90      -99.90      -99.90      -99.90      -99.90    
       -99.90      -99.90      -99.90      -99.90      -99.90      -99.90      -99.90      -99.90      -99.90      -99.90    
       -99.90      -99.90      -99.90      -99.90      -99.90      -99.90      -99.90      -99.90      -99.90      -99.90    
       -99.90      -99.90      -99.90      -99.90      -99.90      -99.90      -99.90      -99.90      -99.90      -99.90    
  31   -99.90      -99.90      -99.90      -99.90      -99.90      -99.90      -99.90      -99.90      -99.90      -99.90    
       -99.90      -99.90      -99.90      -99.90      -99.90      -99.90      -99.90      -99.90      -99.90      -99.90    
       -99.90      -99.90      -99.90      -99.90      -99.90      -99.90      -99.90      -99.90      -99.90      -99.90    
       -99.90      -99.90      -99.90      -99.90      -99.90      -99.90      -99.90      -99.90      -99.90      -99.90    
  32   -99.90      -99.90      -99.90      -99.90      -99.90      -99.90      -99.90      -99.90      -99.90      -99.90    
       -99.90      -99.90      -99.90      -99.90      -99.90      -99.90      -99.90      -99.90      -99.90      -99.90    
       -99.90      -99.90      -99.90      -99.90      -99.90      -99.90      -99.90      -99.90      -99.90      -99.90    
       -99.90      -99.90      -99.90      -99.90      -99.90      -99.90      -99.90      -99.90      -99.90      -99.90    
  33   -99.90      -99.90      -99.90      -99.90      -99.90      -99.90      -99.90      -99.90      -99.90      -99.90    
       -99.90      -99.90      -99.90      -99.90      -99.90      -99.90      -99.90      -99.90      -99.90      -99.90    
       -99.90      -99.90      -99.90      -99.90      -99.90      -99.90      -99.90      -99.90      -99.90      -99.90    
       -99.90      -99.90      -99.90      -99.90      -99.90      -99.90      -99.90      -99.90      -99.90      -99.90    
  34   -99.90      -99.90      -99.90      -99.90      -99.90      -99.90      -99.90      -99.90      -99.90      -99.90    
       -99.90      -99.90      -99.90      -99.90      -99.90      -99.90      -99.90      -99.90      -99.90      -99.90    
       -99.90      -99.90      -99.90      -99.90      -99.90      -99.90      -99.90      -99.90      -99.90      -99.90    
       -99.90      -99.90      -99.90      -99.90      -99.90      -99.90      -99.90      -99.90      -99.90      -99.90    
  35   -99.90      -99.90      -99.90      -99.90      -99.90      -99.90      -99.90      -99.90      -99.90      -99.90    
       -99.90      -99.90      -99.90      -99.90      -99.90      -99.90      -99.90      -99.90      -99.90      -99.90    
       -99.90      -99.90      -99.90      -99.90      -99.90      -99.90      -99.90      -99.90      -99.90      -99.90    
       -99.90      -99.90      -99.90      -99.90      -99.90      -99.90      -99.90      -99.90      -99.90      -99.90    
  36   -99.90      -99.90      -99.90      -99.90      -99.90      -99.90      -99.90      -99.90      -99.90      -99.90    
       -99.90      -99.90      -99.90      -99.90      -99.90      -99.90      -99.90      -99.90      -99.90      -99.90    
       -99.90      -99.90      -99.90      -99.90      -99.90      -99.90      -99.90      -99.90      -99.90      -99.90    
       -99.90      -99.90      -99.90      -99.90      -99.90      -99.90      -99.90      -99.90      -99.90      -99.90    
  37   -99.90      -99.90      -99.90      -99.90      -99.90      -99.90      -99.90      -99.90      -99.90      -99.90    
       -99.90      -99.90      -99.90      -99.90      -99.90      -99.90      -99.90      -99.90      -99.90      -99.90    
       -99.90      -99.90      -99.90      -99.90      -99.90      -99.90      -99.90      -99.90      -99.90      -99.90    
       -99.90      -99.90      -99.90      -99.90      -99.90      -99.90      -99.90      -99.90      -99.90      -99.90    
  38   -99.90      -99.90      -99.90      -99.90      -99.90      -99.90      -99.90      -99.90      -99.90      -99.90    
       -99.90      -99.90      -99.90      -99.90      -99.90      -99.90      -99.90      -99.90      -99.90      -99.90    
       -99.90      -99.90      -99.90      -99.90      -99.90      -99.90      -99.90      -99.90      -99.90      -99.90    
       -99.90      -99.90      -99.90      -99.90      -99.90      -99.90      -99.90      -99.90      -99.90      -99.90    
  39   -99.90      -99.90      -99.90      -99.90      -99.90      -99.90      -99.90      -99.90      -99.90      -99.90    
       -99.90      -99.90      -99.90      -99.90      -99.90      -99.90      -99.90      -99.90      -99.90      -99.90    
       -99.90      -99.90      -99.90      -99.90      -99.90      -99.90      -99.90      -99.90      -99.90      -99.90    
       -99.90      -99.90      -99.90      -99.90      -99.90      -99.90      -99.90      -99.90      -99.90      -99.90    
  40   -99.90      -99.90      -99.90      -99.90      -99.90      -99.90      -99.90      -99.90      -99.90      -99.90    
       -99.90      -99.90      -99.90      -99.90      -99.90      -99.90      -99.90      -99.90      -99.90      -99.90    
       -99.90      -99.90      -99.90      -99.90      -99.90      -99.90      -99.90      -99.90      -99.90      -99.90    
       -99.90      -99.90      -99.90      -99.90      -99.90      -99.90      -99.90      -99.90      -99.90      -99.90    
1
              HEAD IN LAYER   8 AT END OF TIME STEP   1 IN STRESS PERIOD    3
  ---------------------------------------------------------------------------

            1           2           3           4           5           6           7           8           9          10
           11          12          13          14          15          16          17          18          19          20
           21          22          23          24          25          26          27          28          29          30
           31          32          33          34          35          36          37          38          39          40
 ........................................................................................................................
   1    47.04       45.42       40.72       37.49       34.94       32.98       31.37      -99.90      -99.90      -99.90    
       -99.90      -99.90      -99.90      -99.90      -99.90      -99.90      -99.90      -99.90      -99.90      -99.90    
       -99.90      -99.90      -99.90      -99.90      -99.90      -99.90      -99.90      -99.90      -99.90      -99.90    
       -99.90      -99.90      -99.90      -99.90      -99.90      -99.90      -99.90      -99.90      -99.90      -99.90    
   2    45.42       44.03       39.66       36.80       34.49       32.67       31.11      -99.90      -99.90      -99.90    
       -99.90      -99.90      -99.90      -99.90      -99.90      -99.90      -99.90      -99.90      -99.90      -99.90    
       -99.90      -99.90      -99.90      -99.90      -99.90      -99.90      -99.90      -99.90      -99.90      -99.90    
       -99.90      -99.90      -99.90      -99.90      -99.90      -99.90      -99.90      -99.90      -99.90      -99.90    
   3    40.72       39.66       37.59       35.52       33.68       32.10       30.74      -99.90      -99.90      -99.90    
       -99.90      -99.90      -99.90      -99.90      -99.90      -99.90      -99.90      -99.90      -99.90      -99.90    
       -99.90      -99.90      -99.90      -99.90      -99.90      -99.90      -99.90      -99.90      -99.90      -99.90    
       -99.90      -99.90      -99.90      -99.90      -99.90      -99.90      -99.90      -99.90      -99.90      -99.90    
   4    37.49       36.80       35.52       34.08       32.67       31.38      -99.90      -99.90      -99.90      -99.90    
       -99.90      -99.90      -99.90      -99.90      -99.90      -99.90      -99.90      -99.90      -99.90      -99.90    
       -99.90      -99.90      -99.90      -99.90      -99.90      -99.90      -99.90      -99.90      -99.90      -99.90    
       -99.90      -99.90      -99.90      -99.90      -99.90      -99.90      -99.90      -99.90      -99.90      -99.90    
   5    34.94       34.49       33.68       32.67       31.59       30.56      -99.90      -99.90      -99.90      -99.90    
       -99.90      -99.90      -99.90      -99.90      -99.90      -99.90      -99.90      -99.90      -99.90      -99.90    
       -99.90      -99.90      -99.90      -99.90      -99.90      -99.90      -99.90      -99.90      -99.90      -99.90    
       -99.90      -99.90      -99.90      -99.90      -99.90      -99.90      -99.90      -99.90      -99.90      -99.90    
   6    32.98       32.67       32.10       31.38       30.56      -99.90      -99.90      -99.90      -99.90      -99.90    
       -99.90      -99.90      -99.90      -99.90      -99.90      -99.90      -99.90      -99.90      -99.90      -99.90    
       -99.90      -99.90      -99.90      -99.90      -99.90      -99.90      -99.90      -99.90      -99.90      -99.90    
       -99.90      -99.90      -99.90      -99.90      -99.90      -99.90      -99.90      -99.90      -99.90      -99.90    
   7    31.37       31.11       30.74      -99.90      -99.90      -99.90      -99.90      -99.90      -99.90      -99.90    
       -99.90      -99.90      -99.90      -99.90      -99.90      -99.90      -99.90      -99.90      -99.90      -99.90    
       -99.90      -99.90      -99.90      -99.90      -99.90      -99.90      -99.90      -99.90      -99.90      -99.90    
       -99.90      -99.90      -99.90      -99.90      -99.90      -99.90      -99.90      -99.90      -99.90      -99.90    
   8   -99.90      -99.90      -99.90      -99.90      -99.90      -99.90      -99.90      -99.90      -99.90      -99.90    
       -99.90      -99.90      -99.90      -99.90      -99.90      -99.90      -99.90      -99.90      -99.90      -99.90    
       -99.90      -99.90      -99.90      -99.90      -99.90      -99.90      -99.90      -99.90      -99.90      -99.90    
       -99.90      -99.90      -99.90      -99.90      -99.90      -99.90      -99.90      -99.90      -99.90      -99.90    
   9   -99.90      -99.90      -99.90      -99.90      -99.90      -99.90      -99.90      -99.90      -99.90      -99.90    
       -99.90      -99.90      -99.90      -99.90      -99.90      -99.90      -99.90      -99.90      -99.90      -99.90    
       -99.90      -99.90      -99.90      -99.90      -99.90      -99.90      -99.90      -99.90      -99.90      -99.90    
       -99.90      -99.90      -99.90      -99.90      -99.90      -99.90      -99.90      -99.90      -99.90      -99.90    
  10   -99.90      -99.90      -99.90      -99.90      -99.90      -99.90      -99.90      -99.90      -99.90      -99.90    
       -99.90      -99.90      -99.90      -99.90      -99.90      -99.90      -99.90      -99.90      -99.90      -99.90    
       -99.90      -99.90      -99.90      -99.90      -99.90      -99.90      -99.90      -99.90      -99.90      -99.90    
       -99.90      -99.90      -99.90      -99.90      -99.90      -99.90      -99.90      -99.90      -99.90      -99.90    
  11   -99.90      -99.90      -99.90      -99.90      -99.90      -99.90      -99.90      -99.90      -99.90      -99.90    
       -99.90      -99.90      -99.90      -99.90      -99.90      -99.90      -99.90      -99.90      -99.90      -99.90    
       -99.90      -99.90      -99.90      -99.90      -99.90      -99.90      -99.90      -99.90      -99.90      -99.90    
       -99.90      -99.90      -99.90      -99.90      -99.90      -99.90      -99.90      -99.90      -99.90      -99.90    
  12   -99.90      -99.90      -99.90      -99.90      -99.90      -99.90      -99.90      -99.90      -99.90      -99.90    
       -99.90      -99.90      -99.90      -99.90      -99.90      -99.90      -99.90      -99.90      -99.90      -99.90    
       -99.90      -99.90      -99.90      -99.90      -99.90      -99.90      -99.90      -99.90      -99.90      -99.90    
       -99.90      -99.90      -99.90      -99.90      -99.90      -99.90      -99.90      -99.90      -99.90      -99.90    
  13   -99.90      -99.90      -99.90      -99.90      -99.90      -99.90      -99.90      -99.90      -99.90      -99.90    
       -99.90      -99.90      -99.90      -99.90      -99.90      -99.90      -99.90      -99.90      -99.90      -99.90    
       -99.90      -99.90      -99.90      -99.90      -99.90      -99.90      -99.90      -99.90      -99.90      -99.90    
       -99.90      -99.90      -99.90      -99.90      -99.90      -99.90      -99.90      -99.90      -99.90      -99.90    
  14   -99.90      -99.90      -99.90      -99.90      -99.90      -99.90      -99.90      -99.90      -99.90      -99.90    
       -99.90      -99.90      -99.90      -99.90      -99.90      -99.90      -99.90      -99.90      -99.90      -99.90    
       -99.90      -99.90      -99.90      -99.90      -99.90      -99.90      -99.90      -99.90      -99.90      -99.90    
       -99.90      -99.90      -99.90      -99.90      -99.90      -99.90      -99.90      -99.90      -99.90      -99.90    
  15   -99.90      -99.90      -99.90      -99.90      -99.90      -99.90      -99.90      -99.90      -99.90      -99.90    
       -99.90      -99.90      -99.90      -99.90      -99.90      -99.90      -99.90      -99.90      -99.90      -99.90    
       -99.90      -99.90      -99.90      -99.90      -99.90      -99.90      -99.90      -99.90      -99.90      -99.90    
       -99.90      -99.90      -99.90      -99.90      -99.90      -99.90      -99.90      -99.90      -99.90      -99.90    
  16   -99.90      -99.90      -99.90      -99.90      -99.90      -99.90      -99.90      -99.90      -99.90      -99.90    
       -99.90      -99.90      -99.90      -99.90      -99.90      -99.90      -99.90      -99.90      -99.90      -99.90    
       -99.90      -99.90      -99.90      -99.90      -99.90      -99.90      -99.90      -99.90      -99.90      -99.90    
       -99.90      -99.90      -99.90      -99.90      -99.90      -99.90      -99.90      -99.90      -99.90      -99.90    
  17   -99.90      -99.90      -99.90      -99.90      -99.90      -99.90      -99.90      -99.90      -99.90      -99.90    
       -99.90      -99.90      -99.90      -99.90      -99.90      -99.90      -99.90      -99.90      -99.90      -99.90    
       -99.90      -99.90      -99.90      -99.90      -99.90      -99.90      -99.90      -99.90      -99.90      -99.90    
       -99.90      -99.90      -99.90      -99.90      -99.90      -99.90      -99.90      -99.90      -99.90      -99.90    
  18   -99.90      -99.90      -99.90      -99.90      -99.90      -99.90      -99.90      -99.90      -99.90      -99.90    
       -99.90      -99.90      -99.90      -99.90      -99.90      -99.90      -99.90      -99.90      -99.90      -99.90    
       -99.90      -99.90      -99.90      -99.90      -99.90      -99.90      -99.90      -99.90      -99.90      -99.90    
       -99.90      -99.90      -99.90      -99.90      -99.90      -99.90      -99.90      -99.90      -99.90      -99.90    
  19   -99.90      -99.90      -99.90      -99.90      -99.90      -99.90      -99.90      -99.90      -99.90      -99.90    
       -99.90      -99.90      -99.90      -99.90      -99.90      -99.90      -99.90      -99.90      -99.90      -99.90    
       -99.90      -99.90      -99.90      -99.90      -99.90      -99.90      -99.90      -99.90      -99.90      -99.90    
       -99.90      -99.90      -99.90      -99.90      -99.90      -99.90      -99.90      -99.90      -99.90      -99.90    
  20   -99.90      -99.90      -99.90      -99.90      -99.90      -99.90      -99.90      -99.90      -99.90      -99.90    
       -99.90      -99.90      -99.90      -99.90      -99.90      -99.90      -99.90      -99.90      -99.90      -99.90    
       -99.90      -99.90      -99.90      -99.90      -99.90      -99.90      -99.90      -99.90      -99.90      -99.90    
       -99.90      -99.90      -99.90      -99.90      -99.90      -99.90      -99.90      -99.90      -99.90      -99.90    
  21   -99.90      -99.90      -99.90      -99.90      -99.90      -99.90      -99.90      -99.90      -99.90      -99.90    
       -99.90      -99.90      -99.90      -99.90      -99.90      -99.90      -99.90      -99.90      -99.90      -99.90    
       -99.90      -99.90      -99.90      -99.90      -99.90      -99.90      -99.90      -99.90      -99.90      -99.90    
       -99.90      -99.90      -99.90      -99.90      -99.90      -99.90      -99.90      -99.90      -99.90      -99.90    
  22   -99.90      -99.90      -99.90      -99.90      -99.90      -99.90      -99.90      -99.90      -99.90      -99.90    
       -99.90      -99.90      -99.90      -99.90      -99.90      -99.90      -99.90      -99.90      -99.90      -99.90    
       -99.90      -99.90      -99.90      -99.90      -99.90      -99.90      -99.90      -99.90      -99.90      -99.90    
       -99.90      -99.90      -99.90      -99.90      -99.90      -99.90      -99.90      -99.90      -99.90      -99.90    
  23   -99.90      -99.90      -99.90      -99.90      -99.90      -99.90      -99.90      -99.90      -99.90      -99.90    
       -99.90      -99.90      -99.90      -99.90      -99.90      -99.90      -99.90      -99.90      -99.90      -99.90    
       -99.90      -99.90      -99.90      -99.90      -99.90      -99.90      -99.90      -99.90      -99.90      -99.90    
       -99.90      -99.90      -99.90      -99.90      -99.90      -99.90      -99.90      -99.90      -99.90      -99.90    
  24   -99.90      -99.90      -99.90      -99.90      -99.90      -99.90      -99.90      -99.90      -99.90      -99.90    
       -99.90      -99.90      -99.90      -99.90      -99.90      -99.90      -99.90      -99.90      -99.90      -99.90    
       -99.90      -99.90      -99.90      -99.90      -99.90      -99.90      -99.90      -99.90      -99.90      -99.90    
       -99.90      -99.90      -99.90      -99.90      -99.90      -99.90      -99.90      -99.90      -99.90      -99.90    
  25   -99.90      -99.90      -99.90      -99.90      -99.90      -99.90      -99.90      -99.90      -99.90      -99.90    
       -99.90      -99.90      -99.90      -99.90      -99.90      -99.90      -99.90      -99.90      -99.90      -99.90    
       -99.90      -99.90      -99.90      -99.90      -99.90      -99.90      -99.90      -99.90      -99.90      -99.90    
       -99.90      -99.90      -99.90      -99.90      -99.90      -99.90      -99.90      -99.90      -99.90      -99.90    
  26   -99.90      -99.90      -99.90      -99.90      -99.90      -99.90      -99.90      -99.90      -99.90      -99.90    
       -99.90      -99.90      -99.90      -99.90      -99.90      -99.90      -99.90      -99.90      -99.90      -99.90    
       -99.90      -99.90      -99.90      -99.90      -99.90      -99.90      -99.90      -99.90      -99.90      -99.90    
       -99.90      -99.90      -99.90      -99.90      -99.90      -99.90      -99.90      -99.90      -99.90      -99.90    
  27   -99.90      -99.90      -99.90      -99.90      -99.90      -99.90      -99.90      -99.90      -99.90      -99.90    
       -99.90      -99.90      -99.90      -99.90      -99.90      -99.90      -99.90      -99.90      -99.90      -99.90    
       -99.90      -99.90      -99.90      -99.90      -99.90      -99.90      -99.90      -99.90      -99.90      -99.90    
       -99.90      -99.90      -99.90      -99.90      -99.90      -99.90      -99.90      -99.90      -99.90      -99.90    
  28   -99.90      -99.90      -99.90      -99.90      -99.90      -99.90      -99.90      -99.90      -99.90      -99.90    
       -99.90      -99.90      -99.90      -99.90      -99.90      -99.90      -99.90      -99.90      -99.90      -99.90    
       -99.90      -99.90      -99.90      -99.90      -99.90      -99.90      -99.90      -99.90      -99.90      -99.90    
       -99.90      -99.90      -99.90      -99.90      -99.90      -99.90      -99.90      -99.90      -99.90      -99.90    
  29   -99.90      -99.90      -99.90      -99.90      -99.90      -99.90      -99.90      -99.90      -99.90      -99.90    
       -99.90      -99.90      -99.90      -99.90      -99.90      -99.90      -99.90      -99.90      -99.90      -99.90    
       -99.90      -99.90      -99.90      -99.90      -99.90      -99.90      -99.90      -99.90      -99.90      -99.90    
       -99.90      -99.90      -99.90      -99.90      -99.90      -99.90      -99.90      -99.90      -99.90      -99.90    
  30   -99.90      -99.90      -99.90      -99.90      -99.90      -99.90      -99.90      -99.90      -99.90      -99.90    
       -99.90      -99.90      -99.90      -99.90      -99.90      -99.90      -99.90      -99.90      -99.90      -99.90    
       -99.90      -99.90      -99.90      -99.90      -99.90      -99.90      -99.90      -99.90      -99.90      -99.90    
       -99.90      -99.90      -99.90      -99.90      -99.90      -99.90      -99.90      -99.90      -99.90      -99.90    
  31   -99.90      -99.90      -99.90      -99.90      -99.90      -99.90      -99.90      -99.90      -99.90      -99.90    
       -99.90      -99.90      -99.90      -99.90      -99.90      -99.90      -99.90      -99.90      -99.90      -99.90    
       -99.90      -99.90      -99.90      -99.90      -99.90      -99.90      -99.90      -99.90      -99.90      -99.90    
       -99.90      -99.90      -99.90      -99.90      -99.90      -99.90      -99.90      -99.90      -99.90      -99.90    
  32   -99.90      -99.90      -99.90      -99.90      -99.90      -99.90      -99.90      -99.90      -99.90      -99.90    
       -99.90      -99.90      -99.90      -99.90      -99.90      -99.90      -99.90      -99.90      -99.90      -99.90    
       -99.90      -99.90      -99.90      -99.90      -99.90      -99.90      -99.90      -99.90      -99.90      -99.90    
       -99.90      -99.90      -99.90      -99.90      -99.90      -99.90      -99.90      -99.90      -99.90      -99.90    
  33   -99.90      -99.90      -99.90      -99.90      -99.90      -99.90      -99.90      -99.90      -99.90      -99.90    
       -99.90      -99.90      -99.90      -99.90      -99.90      -99.90      -99.90      -99.90      -99.90      -99.90    
       -99.90      -99.90      -99.90      -99.90      -99.90      -99.90      -99.90      -99.90      -99.90      -99.90    
       -99.90      -99.90      -99.90      -99.90      -99.90      -99.90      -99.90      -99.90      -99.90      -99.90    
  34   -99.90      -99.90      -99.90      -99.90      -99.90      -99.90      -99.90      -99.90      -99.90      -99.90    
       -99.90      -99.90      -99.90      -99.90      -99.90      -99.90      -99.90      -99.90      -99.90      -99.90    
       -99.90      -99.90      -99.90      -99.90      -99.90      -99.90      -99.90      -99.90      -99.90      -99.90    
       -99.90      -99.90      -99.90      -99.90      -99.90      -99.90      -99.90      -99.90      -99.90      -99.90    
  35   -99.90      -99.90      -99.90      -99.90      -99.90      -99.90      -99.90      -99.90      -99.90      -99.90    
       -99.90      -99.90      -99.90      -99.90      -99.90      -99.90      -99.90      -99.90      -99.90      -99.90    
       -99.90      -99.90      -99.90      -99.90      -99.90      -99.90      -99.90      -99.90      -99.90      -99.90    
       -99.90      -99.90      -99.90      -99.90      -99.90      -99.90      -99.90      -99.90      -99.90      -99.90    
  36   -99.90      -99.90      -99.90      -99.90      -99.90      -99.90      -99.90      -99.90      -99.90      -99.90    
       -99.90      -99.90      -99.90      -99.90      -99.90      -99.90      -99.90      -99.90      -99.90      -99.90    
       -99.90      -99.90      -99.90      -99.90      -99.90      -99.90      -99.90      -99.90      -99.90      -99.90    
       -99.90      -99.90      -99.90      -99.90      -99.90      -99.90      -99.90      -99.90      -99.90      -99.90    
  37   -99.90      -99.90      -99.90      -99.90      -99.90      -99.90      -99.90      -99.90      -99.90      -99.90    
       -99.90      -99.90      -99.90      -99.90      -99.90      -99.90      -99.90      -99.90      -99.90      -99.90    
       -99.90      -99.90      -99.90      -99.90      -99.90      -99.90      -99.90      -99.90      -99.90      -99.90    
       -99.90      -99.90      -99.90      -99.90      -99.90      -99.90      -99.90      -99.90      -99.90      -99.90    
  38   -99.90      -99.90      -99.90      -99.90      -99.90      -99.90      -99.90      -99.90      -99.90      -99.90    
       -99.90      -99.90      -99.90      -99.90      -99.90      -99.90      -99.90      -99.90      -99.90      -99.90    
       -99.90      -99.90      -99.90      -99.90      -99.90      -99.90      -99.90      -99.90      -99.90      -99.90    
       -99.90      -99.90      -99.90      -99.90      -99.90      -99.90      -99.90      -99.90      -99.90      -99.90    
  39   -99.90      -99.90      -99.90      -99.90      -99.90      -99.90      -99.90      -99.90      -99.90      -99.90    
       -99.90      -99.90      -99.90      -99.90      -99.90      -99.90      -99.90      -99.90      -99.90      -99.90    
       -99.90      -99.90      -99.90      -99.90      -99.90      -99.90      -99.90      -99.90      -99.90      -99.90    
       -99.90      -99.90      -99.90      -99.90      -99.90      -99.90      -99.90      -99.90      -99.90      -99.90    
  40   -99.90      -99.90      -99.90      -99.90      -99.90      -99.90      -99.90      -99.90      -99.90      -99.90    
       -99.90      -99.90      -99.90      -99.90      -99.90      -99.90      -99.90      -99.90      -99.90      -99.90    
       -99.90      -99.90      -99.90      -99.90      -99.90      -99.90      -99.90      -99.90      -99.90      -99.90    
       -99.90      -99.90      -99.90      -99.90      -99.90      -99.90      -99.90      -99.90      -99.90      -99.90    
1
              HEAD IN LAYER   9 AT END OF TIME STEP   1 IN STRESS PERIOD    3
  ---------------------------------------------------------------------------

            1           2           3           4           5           6           7           8           9          10
           11          12          13          14          15          16          17          18          19          20
           21          22          23          24          25          26          27          28          29          30
           31          32          33          34          35          36          37          38          39          40
 ........................................................................................................................
   1    46.42       44.79       40.62       37.46       34.95       32.98       31.38       30.05       29.00       28.14    
        27.46       26.92       26.48       26.14       25.88       25.67       25.50       25.38       25.29       25.23    
        25.18       25.16      -99.90      -99.90      -99.90      -99.90      -99.90      -99.90      -99.90      -99.90    
       -99.90      -99.90      -99.90      -99.90      -99.90      -99.90      -99.90      -99.90      -99.90      -99.90    
   2    44.79       43.37       39.57       36.77       34.50       32.67       31.13       29.89       28.89       28.06    
        27.40       26.87       26.45       26.12       25.86       25.65       25.50       25.38       25.29       25.23    
        25.18       25.16      -99.90      -99.90      -99.90      -99.90      -99.90      -99.90      -99.90      -99.90    
       -99.90      -99.90      -99.90      -99.90      -99.90      -99.90      -99.90      -99.90      -99.90      -99.90    
   3    40.62       39.57       37.56       35.51       33.69       32.11       30.75       29.61       28.68       27.91    
        27.29       26.79       26.39       26.08       25.83       25.63       25.48       25.36       25.28       25.22    
        25.18       25.15      -99.90      -99.90      -99.90      -99.90      -99.90      -99.90      -99.90      -99.90    
       -99.90      -99.90      -99.90      -99.90      -99.90      -99.90      -99.90      -99.90      -99.90      -99.90    
   4    37.46       36.77       35.51       34.08       32.68       31.38       30.22       29.23       28.39       27.70    
        27.14       26.68       26.31       26.02       25.78       25.59       25.45       25.35       25.27       25.21    
        25.17       25.15      -99.90      -99.90      -99.90      -99.90      -99.90      -99.90      -99.90      -99.90    
       -99.90      -99.90      -99.90      -99.90      -99.90      -99.90      -99.90      -99.90      -99.90      -99.90    
   5    34.95       34.50       33.69       32.68       31.61       30.57       29.61       28.78       28.06       27.45    
        26.95       26.54       26.21       25.94       25.72       25.55       25.42       25.32       25.25       25.20    
        25.17       25.15      -99.90      -99.90      -99.90      -99.90      -99.90      -99.90      -99.90      -99.90    
       -99.90      -99.90      -99.90      -99.90      -99.90      -99.90      -99.90      -99.90      -99.90      -99.90    
   6    32.98       32.67       32.11       31.38       30.57       29.75       28.99       28.30       27.70       27.18    
        26.75       26.39       26.09       25.85       25.66       25.51       25.39       25.30       25.24       25.19    
        25.16       25.14      -99.90      -99.90      -99.90      -99.90      -99.90      -99.90      -99.90      -99.90    
       -99.90      -99.90      -99.90      -99.90      -99.90      -99.90      -99.90      -99.90      -99.90      -99.90    
   7    31.38       31.13       30.75       30.22       29.61       28.99       28.39       27.83       27.34       26.91    
        26.54       26.23       25.97       25.76       25.59       25.46       25.35       25.28       25.22       25.18    
        25.15      -99.90      -99.90      -99.90      -99.90      -99.90      -99.90      -99.90      -99.90      -99.90    
       -99.90      -99.90      -99.90      -99.90      -99.90      -99.90      -99.90      -99.90      -99.90      -99.90    
   8    30.05       29.89       29.61       29.23       28.78       28.30       27.83       27.39       26.99       26.64    
        26.33       26.07       25.85       25.67       25.52       25.41       25.32       25.25       25.20       25.17    
        25.15      -99.90      -99.90      -99.90      -99.90      -99.90      -99.90      -99.90      -99.90      -99.90    
       -99.90      -99.90      -99.90      -99.90      -99.90      -99.90      -99.90      -99.90      -99.90      -99.90    
   9    29.00       28.89       28.68       28.39       28.06       27.70       27.34       26.99       26.67       26.38    
        26.13       25.92       25.73       25.58       25.45       25.36       25.28       25.23       25.19       25.16    
        25.14      -99.90      -99.90      -99.90      -99.90      -99.90      -99.90      -99.90      -99.90      -99.90    
       -99.90      -99.90      -99.90      -99.90      -99.90      -99.90      -99.90      -99.90      -99.90      -99.90    
  10    28.14       28.06       27.91       27.70       27.45       27.18       26.91       26.64       26.38       26.15    
        25.95       25.77       25.62       25.49       25.39       25.31       25.25       25.20       25.17       25.15    
       -99.90      -99.90      -99.90      -99.90      -99.90      -99.90      -99.90      -99.90      -99.90      -99.90    
       -99.90      -99.90      -99.90      -99.90      -99.90      -99.90      -99.90      -99.90      -99.90      -99.90    
  11    27.46       27.40       27.29       27.14       26.95       26.75       26.54       26.33       26.13       25.95    
        25.79       25.64       25.52       25.42       25.33       25.27       25.22       25.18       25.16       25.14    
       -99.90      -99.90      -99.90      -99.90      -99.90      -99.90      -99.90      -99.90      -99.90      -99.90    
       -99.90      -99.90      -99.90      -99.90      -99.90      -99.90      -99.90      -99.90      -99.90      -99.90    
  12    26.92       26.87       26.79       26.68       26.54       26.39       26.23       26.07       25.92       25.77    
        25.64       25.53       25.43       25.35       25.28       25.23       25.19       25.16       25.15      -99.90    
       -99.90      -99.90      -99.90      -99.90      -99.90      -99.90      -99.90      -99.90      -99.90      -99.90    
       -99.90      -99.90      -99.90      -99.90      -99.90      -99.90      -99.90      -99.90      -99.90      -99.90    
  13    26.48       26.45       26.39       26.31       26.21       26.09       25.97       25.85       25.73       25.62    
        25.52       25.43       25.36       25.29       25.24       25.20       25.17       25.15       25.14      -99.90    
       -99.90      -99.90      -99.90      -99.90      -99.90      -99.90      -99.90      -99.90      -99.90      -99.90    
       -99.90      -99.90      -99.90      -99.90      -99.90      -99.90      -99.90      -99.90      -99.90      -99.90    
  14    26.14       26.12       26.08       26.02       25.94       25.85       25.76       25.67       25.58       25.49    
        25.42       25.35       25.29       25.25       25.21       25.18       25.15       25.14      -99.90      -99.90    
       -99.90      -99.90      -99.90      -99.90      -99.90      -99.90      -99.90      -99.90      -99.90      -99.90    
       -99.90      -99.90      -99.90      -99.90      -99.90      -99.90      -99.90      -99.90      -99.90      -99.90    
  15    25.88       25.86       25.83       25.78       25.72       25.66       25.59       25.52       25.45       25.39    
        25.33       25.28       25.24       25.21       25.18       25.16       25.14      -99.90      -99.90      -99.90    
       -99.90      -99.90      -99.90      -99.90      -99.90      -99.90      -99.90      -99.90      -99.90      -99.90    
       -99.90      -99.90      -99.90      -99.90      -99.90      -99.90      -99.90      -99.90      -99.90      -99.90    
  16    25.67       25.65       25.63       25.59       25.55       25.51       25.46       25.41       25.36       25.31    
        25.27       25.23       25.20       25.18       25.16       25.14      -99.90      -99.90      -99.90      -99.90    
       -99.90      -99.90      -99.90      -99.90      -99.90      -99.90      -99.90      -99.90      -99.90      -99.90    
       -99.90      -99.90      -99.90      -99.90      -99.90      -99.90      -99.90      -99.90      -99.90      -99.90    
  17    25.50       25.50       25.48       25.45       25.42       25.39       25.35       25.32       25.28       25.25    
        25.22       25.19       25.17       25.15       25.14      -99.90      -99.90      -99.90      -99.90      -99.90    
       -99.90      -99.90      -99.90      -99.90      -99.90      -99.90      -99.90      -99.90      -99.90      -99.90    
       -99.90      -99.90      -99.90      -99.90      -99.90      -99.90      -99.90      -99.90      -99.90      -99.90    
  18    25.38       25.38       25.36       25.35       25.32       25.30       25.28       25.25       25.23       25.20    
        25.18       25.16       25.15       25.14      -99.90      -99.90      -99.90      -99.90      -99.90      -99.90    
       -99.90      -99.90      -99.90      -99.90      -99.90      -99.90      -99.90      -99.90      -99.90      -99.90    
       -99.90      -99.90      -99.90      -99.90      -99.90      -99.90      -99.90      -99.90      -99.90      -99.90    
  19    25.29       25.29       25.28       25.27       25.25       25.24       25.22       25.20       25.19       25.17    
        25.16       25.15       25.14      -99.90      -99.90      -99.90      -99.90      -99.90      -99.90      -99.90    
       -99.90      -99.90      -99.90      -99.90      -99.90      -99.90      -99.90      -99.90      -99.90      -99.90    
       -99.90      -99.90      -99.90      -99.90      -99.90      -99.90      -99.90      -99.90      -99.90      -99.90    
  20    25.23       25.23       25.22       25.21       25.20       25.19       25.18       25.17       25.16       25.15    
        25.14      -99.90      -99.90      -99.90      -99.90      -99.90      -99.90      -99.90      -99.90      -99.90    
       -99.90      -99.90      -99.90      -99.90      -99.90      -99.90      -99.90      -99.90      -99.90      -99.90    
       -99.90      -99.90      -99.90      -99.90      -99.90      -99.90      -99.90      -99.90      -99.90      -99.90    
  21    25.18       25.18       25.18       25.17       25.17       25.16       25.15       25.15       25.14      -99.90    
       -99.90      -99.90      -99.90      -99.90      -99.90      -99.90      -99.90      -99.90      -99.90      -99.90    
       -99.90      -99.90      -99.90      -99.90      -99.90      -99.90      -99.90      -99.90      -99.90      -99.90    
       -99.90      -99.90      -99.90      -99.90      -99.90      -99.90      -99.90      -99.90      -99.90      -99.90    
  22    25.16       25.16       25.15       25.15       25.15       25.14      -99.90      -99.90      -99.90      -99.90    
       -99.90      -99.90      -99.90      -99.90      -99.90      -99.90      -99.90      -99.90      -99.90      -99.90    
       -99.90      -99.90      -99.90      -99.90      -99.90      -99.90      -99.90      -99.90      -99.90      -99.90    
       -99.90      -99.90      -99.90      -99.90      -99.90      -99.90      -99.90      -99.90      -99.90      -99.90    
  23   -99.90      -99.90      -99.90      -99.90      -99.90      -99.90      -99.90      -99.90      -99.90      -99.90    
       -99.90      -99.90      -99.90      -99.90      -99.90      -99.90      -99.90      -99.90      -99.90      -99.90    
       -99.90      -99.90      -99.90      -99.90      -99.90      -99.90      -99.90      -99.90      -99.90      -99.90    
       -99.90      -99.90      -99.90      -99.90      -99.90      -99.90      -99.90      -99.90      -99.90      -99.90    
  24   -99.90      -99.90      -99.90      -99.90      -99.90      -99.90      -99.90      -99.90      -99.90      -99.90    
       -99.90      -99.90      -99.90      -99.90      -99.90      -99.90      -99.90      -99.90      -99.90      -99.90    
       -99.90      -99.90      -99.90      -99.90      -99.90      -99.90      -99.90      -99.90      -99.90      -99.90    
       -99.90      -99.90      -99.90      -99.90      -99.90      -99.90      -99.90      -99.90      -99.90      -99.90    
  25   -99.90      -99.90      -99.90      -99.90      -99.90      -99.90      -99.90      -99.90      -99.90      -99.90    
       -99.90      -99.90      -99.90      -99.90      -99.90      -99.90      -99.90      -99.90      -99.90      -99.90    
       -99.90      -99.90      -99.90      -99.90      -99.90      -99.90      -99.90      -99.90      -99.90      -99.90    
       -99.90      -99.90      -99.90      -99.90      -99.90      -99.90      -99.90      -99.90      -99.90      -99.90    
  26   -99.90      -99.90      -99.90      -99.90      -99.90      -99.90      -99.90      -99.90      -99.90      -99.90    
       -99.90      -99.90      -99.90      -99.90      -99.90      -99.90      -99.90      -99.90      -99.90      -99.90    
       -99.90      -99.90      -99.90      -99.90      -99.90      -99.90      -99.90      -99.90      -99.90      -99.90    
       -99.90      -99.90      -99.90      -99.90      -99.90      -99.90      -99.90      -99.90      -99.90      -99.90    
  27   -99.90      -99.90      -99.90      -99.90      -99.90      -99.90      -99.90      -99.90      -99.90      -99.90    
       -99.90      -99.90      -99.90      -99.90      -99.90      -99.90      -99.90      -99.90      -99.90      -99.90    
       -99.90      -99.90      -99.90      -99.90      -99.90      -99.90      -99.90      -99.90      -99.90      -99.90    
       -99.90      -99.90      -99.90      -99.90      -99.90      -99.90      -99.90      -99.90      -99.90      -99.90    
  28   -99.90      -99.90      -99.90      -99.90      -99.90      -99.90      -99.90      -99.90      -99.90      -99.90    
       -99.90      -99.90      -99.90      -99.90      -99.90      -99.90      -99.90      -99.90      -99.90      -99.90    
       -99.90      -99.90      -99.90      -99.90      -99.90      -99.90      -99.90      -99.90      -99.90      -99.90    
       -99.90      -99.90      -99.90      -99.90      -99.90      -99.90      -99.90      -99.90      -99.90      -99.90    
  29   -99.90      -99.90      -99.90      -99.90      -99.90      -99.90      -99.90      -99.90      -99.90      -99.90    
       -99.90      -99.90      -99.90      -99.90      -99.90      -99.90      -99.90      -99.90      -99.90      -99.90    
       -99.90      -99.90      -99.90      -99.90      -99.90      -99.90      -99.90      -99.90      -99.90      -99.90    
       -99.90      -99.90      -99.90      -99.90      -99.90      -99.90      -99.90      -99.90      -99.90      -99.90    
  30   -99.90      -99.90      -99.90      -99.90      -99.90      -99.90      -99.90      -99.90      -99.90      -99.90    
       -99.90      -99.90      -99.90      -99.90      -99.90      -99.90      -99.90      -99.90      -99.90      -99.90    
       -99.90      -99.90      -99.90      -99.90      -99.90      -99.90      -99.90      -99.90      -99.90      -99.90    
       -99.90      -99.90      -99.90      -99.90      -99.90      -99.90      -99.90      -99.90      -99.90      -99.90    
  31   -99.90      -99.90      -99.90      -99.90      -99.90      -99.90      -99.90      -99.90      -99.90      -99.90    
       -99.90      -99.90      -99.90      -99.90      -99.90      -99.90      -99.90      -99.90      -99.90      -99.90    
       -99.90      -99.90      -99.90      -99.90      -99.90      -99.90      -99.90      -99.90      -99.90      -99.90    
       -99.90      -99.90      -99.90      -99.90      -99.90      -99.90      -99.90      -99.90      -99.90      -99.90    
  32   -99.90      -99.90      -99.90      -99.90      -99.90      -99.90      -99.90      -99.90      -99.90      -99.90    
       -99.90      -99.90      -99.90      -99.90      -99.90      -99.90      -99.90      -99.90      -99.90      -99.90    
       -99.90      -99.90      -99.90      -99.90      -99.90      -99.90      -99.90      -99.90      -99.90      -99.90    
       -99.90      -99.90      -99.90      -99.90      -99.90      -99.90      -99.90      -99.90      -99.90      -99.90    
  33   -99.90      -99.90      -99.90      -99.90      -99.90      -99.90      -99.90      -99.90      -99.90      -99.90    
       -99.90      -99.90      -99.90      -99.90      -99.90      -99.90      -99.90      -99.90      -99.90      -99.90    
       -99.90      -99.90      -99.90      -99.90      -99.90      -99.90      -99.90      -99.90      -99.90      -99.90    
       -99.90      -99.90      -99.90      -99.90      -99.90      -99.90      -99.90      -99.90      -99.90      -99.90    
  34   -99.90      -99.90      -99.90      -99.90      -99.90      -99.90      -99.90      -99.90      -99.90      -99.90    
       -99.90      -99.90      -99.90      -99.90      -99.90      -99.90      -99.90      -99.90      -99.90      -99.90    
       -99.90      -99.90      -99.90      -99.90      -99.90      -99.90      -99.90      -99.90      -99.90      -99.90    
       -99.90      -99.90      -99.90      -99.90      -99.90      -99.90      -99.90      -99.90      -99.90      -99.90    
  35   -99.90      -99.90      -99.90      -99.90      -99.90      -99.90      -99.90      -99.90      -99.90      -99.90    
       -99.90      -99.90      -99.90      -99.90      -99.90      -99.90      -99.90      -99.90      -99.90      -99.90    
       -99.90      -99.90      -99.90      -99.90      -99.90      -99.90      -99.90      -99.90      -99.90      -99.90    
       -99.90      -99.90      -99.90      -99.90      -99.90      -99.90      -99.90      -99.90      -99.90      -99.90    
  36   -99.90      -99.90      -99.90      -99.90      -99.90      -99.90      -99.90      -99.90      -99.90      -99.90    
       -99.90      -99.90      -99.90      -99.90      -99.90      -99.90      -99.90      -99.90      -99.90      -99.90    
       -99.90      -99.90      -99.90      -99.90      -99.90      -99.90      -99.90      -99.90      -99.90      -99.90    
       -99.90      -99.90      -99.90      -99.90      -99.90      -99.90      -99.90      -99.90      -99.90      -99.90    
  37   -99.90      -99.90      -99.90      -99.90      -99.90      -99.90      -99.90      -99.90      -99.90      -99.90    
       -99.90      -99.90      -99.90      -99.90      -99.90      -99.90      -99.90      -99.90      -99.90      -99.90    
       -99.90      -99.90      -99.90      -99.90      -99.90      -99.90      -99.90      -99.90      -99.90      -99.90    
       -99.90      -99.90      -99.90      -99.90      -99.90      -99.90      -99.90      -99.90      -99.90      -99.90    
  38   -99.90      -99.90      -99.90      -99.90      -99.90      -99.90      -99.90      -99.90      -99.90      -99.90    
       -99.90      -99.90      -99.90      -99.90      -99.90      -99.90      -99.90      -99.90      -99.90      -99.90    
       -99.90      -99.90      -99.90      -99.90      -99.90      -99.90      -99.90      -99.90      -99.90      -99.90    
       -99.90      -99.90      -99.90      -99.90      -99.90      -99.90      -99.90      -99.90      -99.90      -99.90    
  39   -99.90      -99.90      -99.90      -99.90      -99.90      -99.90      -99.90      -99.90      -99.90      -99.90    
       -99.90      -99.90      -99.90      -99.90      -99.90      -99.90      -99.90      -99.90      -99.90      -99.90    
       -99.90      -99.90      -99.90      -99.90      -99.90      -99.90      -99.90      -99.90      -99.90      -99.90    
       -99.90      -99.90      -99.90      -99.90      -99.90      -99.90      -99.90      -99.90      -99.90      -99.90    
  40   -99.90      -99.90      -99.90      -99.90      -99.90      -99.90      -99.90      -99.90      -99.90      -99.90    
       -99.90      -99.90      -99.90      -99.90      -99.90      -99.90      -99.90      -99.90      -99.90      -99.90    
       -99.90      -99.90      -99.90      -99.90      -99.90      -99.90      -99.90      -99.90      -99.90      -99.90    
       -99.90      -99.90      -99.90      -99.90      -99.90      -99.90      -99.90      -99.90      -99.90      -99.90    
1
              HEAD IN LAYER  10 AT END OF TIME STEP   1 IN STRESS PERIOD    3
  ---------------------------------------------------------------------------

            1           2           3           4           5           6           7           8           9          10
           11          12          13          14          15          16          17          18          19          20
           21          22          23          24          25          26          27          28          29          30
           31          32          33          34          35          36          37          38          39          40
 ........................................................................................................................
   1    45.91       44.29       40.52       37.44       34.95       32.99       31.39       30.07       29.01       28.16    
        27.47       26.93       26.49       26.15       25.88       25.67       25.51       25.39       25.30       25.23    
        25.19       25.16       25.15       25.13       25.12       25.11       25.10       25.09       25.08       25.07    
        25.07       25.06       25.05       25.04       25.04       25.03       25.02       25.01       25.01       25.00    
   2    44.29       42.87       39.48       36.75       34.50       32.68       31.15       29.91       28.90       28.08    
        27.41       26.88       26.46       26.13       25.87       25.66       25.50       25.38       25.29       25.23    
        25.19       25.16       25.15       25.13       25.12       25.11       25.10       25.09       25.08       25.07    
        25.07       25.06       25.05       25.04       25.04       25.03       25.02       25.01       25.01       25.00    
   3    40.52       39.48       37.53       35.51       33.69       32.12       30.77       29.63       28.69       27.93    
        27.30       26.80       26.40       26.08       25.83       25.63       25.48       25.37       25.28       25.22    
        25.18       25.16       25.14       25.13       25.12       25.11       25.10       25.09       25.08       25.07    
        25.07       25.06       25.05       25.04       25.04       25.03       25.02       25.01       25.01       25.00    
   4    37.44       36.75       35.51       34.09       32.68       31.39       30.24       29.24       28.41       27.72    
        27.15       26.69       26.32       26.02       25.79       25.60       25.46       25.35       25.27       25.21    
        25.18       25.15       25.14       25.13       25.12       25.11       25.10       25.09       25.08       25.07    
        25.07       25.06       25.05       25.04       25.03       25.03       25.02       25.01       25.01       25.00    
   5    34.95       34.50       33.69       32.68       31.62       30.58       29.63       28.79       28.07       27.47    
        26.96       26.55       26.22       25.95       25.73       25.56       25.43       25.33       25.26       25.20    
        25.17       25.15       25.14       25.13       25.12       25.11       25.10       25.09       25.08       25.07    
        25.06       25.06       25.05       25.04       25.03       25.03       25.02       25.01       25.01       25.00    
   6    32.99       32.68       32.12       31.39       30.58       29.76       29.00       28.32       27.71       27.19    
        26.76       26.40       26.10       25.86       25.66       25.51       25.39       25.30       25.24       25.19    
        25.16       25.14       25.14       25.13       25.12       25.11       25.10       25.09       25.08       25.07    
        25.06       25.06       25.05       25.04       25.03       25.03       25.02       25.01       25.01       25.00    
   7    31.39       31.15       30.77       30.24       29.63       29.00       28.40       27.85       27.35       26.92    
        26.55       26.24       25.98       25.77       25.60       25.46       25.36       25.28       25.22       25.18    
        25.16       25.14       25.13       25.12       25.11       25.10       25.09       25.09       25.08       25.07    
        25.06       25.05       25.05       25.04       25.03       25.03       25.02       25.01       25.01       25.00    
   8    30.07       29.91       29.63       29.24       28.79       28.32       27.85       27.40       27.00       26.65    
        26.34       26.08       25.86       25.67       25.53       25.41       25.32       25.25       25.20       25.17    
        25.15       25.14       25.13       25.12       25.11       25.10       25.09       25.08       25.08       25.07    
        25.06       25.05       25.05       25.04       25.03       25.03       25.02       25.01       25.01       25.00    
   9    29.01       28.90       28.69       28.41       28.07       27.71       27.35       27.00       26.68       26.39    
        26.14       25.92       25.74       25.58       25.46       25.36       25.29       25.23       25.19       25.16    
        25.14       25.13       25.13       25.12       25.11       25.10       25.09       25.08       25.07       25.07    
        25.06       25.05       25.05       25.04       25.03       25.03       25.02       25.01       25.01       25.00    
  10    28.16       28.08       27.93       27.72       27.47       27.19       26.92       26.65       26.39       26.16    
        25.96       25.78       25.63       25.50       25.40       25.31       25.25       25.21       25.17       25.15    
        25.14       25.13       25.12       25.11       25.10       25.10       25.09       25.08       25.07       25.07    
        25.06       25.05       25.04       25.04       25.03       25.03       25.02       25.01       25.01       25.00    
  11    27.47       27.41       27.30       27.15       26.96       26.76       26.55       26.34       26.14       25.96    
        25.79       25.65       25.52       25.42       25.34       25.27       25.22       25.18       25.16       25.14    
        25.13       25.13       25.12       25.11       25.10       25.09       25.09       25.08       25.07       25.06    
        25.06       25.05       25.04       25.04       25.03       25.02       25.02       25.01       25.01       25.00    
  12    26.93       26.88       26.80       26.69       26.55       26.40       26.24       26.08       25.92       25.78    
        25.65       25.53       25.44       25.35       25.29       25.24       25.20       25.17       25.15       25.14    
        25.13       25.12       25.11       25.11       25.10       25.09       25.08       25.08       25.07       25.06    
        25.05       25.05       25.04       25.04       25.03       25.02       25.02       25.01       25.01       25.00    
  13    26.49       26.46       26.40       26.32       26.22       26.10       25.98       25.86       25.74       25.63    
        25.52       25.44       25.36       25.30       25.24       25.20       25.17       25.15       25.14       25.13    
        25.12       25.12       25.11       25.10       25.09       25.09       25.08       25.07       25.07       25.06    
        25.05       25.05       25.04       25.03       25.03       25.02       25.02       25.01       25.01       25.00    
  14    26.15       26.13       26.08       26.02       25.95       25.86       25.77       25.67       25.58       25.50    
        25.42       25.35       25.30       25.25       25.21       25.18       25.16       25.14       25.14       25.13    
        25.12       25.11       25.10       25.10       25.09       25.08       25.08       25.07       25.06       25.06    
        25.05       25.05       25.04       25.03       25.03       25.02       25.02       25.01       25.01       25.00    
  15    25.88       25.87       25.83       25.79       25.73       25.66       25.60       25.53       25.46       25.40    
        25.34       25.29       25.24       25.21       25.18       25.16       25.14       25.14       25.13       25.12    
        25.11       25.11       25.10       25.09       25.09       25.08       25.07       25.07       25.06       25.06    
        25.05       25.04       25.04       25.03       25.03       25.02       25.02       25.01       25.01       25.00    
  16    25.67       25.66       25.63       25.60       25.56       25.51       25.46       25.41       25.36       25.31    
        25.27       25.24       25.20       25.18       25.16       25.15       25.14       25.13       25.12       25.12    
        25.11       25.10       25.10       25.09       25.08       25.08       25.07       25.06       25.06       25.05    
        25.05       25.04       25.04       25.03       25.03       25.02       25.02       25.01       25.01       25.00    
  17    25.51       25.50       25.48       25.46       25.43       25.39       25.36       25.32       25.29       25.25    
        25.22       25.20       25.17       25.16       25.14       25.14       25.13       25.12       25.12       25.11    
        25.10       25.10       25.09       25.09       25.08       25.07       25.07       25.06       25.06       25.05    
        25.05       25.04       25.04       25.03       25.02       25.02       25.01       25.01       25.00       25.00    
  18    25.39       25.38       25.37       25.35       25.33       25.30       25.28       25.25       25.23       25.21    
        25.18       25.17       25.15       25.14       25.14       25.13       25.12       25.12       25.11       25.11    
        25.10       25.09       25.09       25.08       25.08       25.07       25.06       25.06       25.05       25.05    
        25.04       25.04       25.03       25.03       25.02       25.02       25.01       25.01       25.00       25.00    
  19    25.30       25.29       25.28       25.27       25.26       25.24       25.22       25.20       25.19       25.17    
        25.16       25.15       25.14       25.14       25.13       25.12       25.12       25.11       25.11       25.10    
        25.09       25.09       25.08       25.08       25.07       25.07       25.06       25.06       25.05       25.05    
        25.04       25.04       25.03       25.03       25.02       25.02       25.01       25.01       25.00       25.00    
  20    25.23       25.23       25.22       25.21       25.20       25.19       25.18       25.17       25.16       25.15    
        25.14       25.14       25.13       25.13       25.12       25.12       25.11       25.11       25.10       25.09    
        25.09       25.08       25.08       25.07       25.07       25.06       25.06       25.05       25.05       25.04    
        25.04       25.04       25.03       25.03       25.02       25.02       25.01       25.01       25.00       25.00    
  21    25.19       25.19       25.18       25.18       25.17       25.16       25.16       25.15       25.14       25.14    
        25.13       25.13       25.12       25.12       25.11       25.11       25.10       25.10       25.09       25.09    
        25.08       25.08       25.07       25.07       25.06       25.06       25.06       25.05       25.05       25.04    
        25.04       25.03       25.03       25.02       25.02       25.02       25.01       25.01       25.00       25.00    
  22    25.16       25.16       25.16       25.15       25.15       25.14       25.14       25.14       25.13       25.13    
        25.13       25.12       25.12       25.11       25.11       25.10       25.10       25.09       25.09       25.08    
        25.08       25.07       25.07       25.07       25.06       25.06       25.05       25.05       25.04       25.04    
        25.04       25.03       25.03       25.02       25.02       25.02       25.01       25.01       25.00       25.00    
  23    25.15       25.15       25.14       25.14       25.14       25.14       25.13       25.13       25.13       25.12    
        25.12       25.11       25.11       25.10       25.10       25.10       25.09       25.09       25.08       25.08    
        25.07       25.07       25.07       25.06       25.06       25.05       25.05       25.05       25.04       25.04    
        25.03       25.03       25.03       25.02       25.02       25.01       25.01       25.01       25.00       25.00    
  24    25.13       25.13       25.13       25.13       25.13       25.13       25.12       25.12       25.12       25.11    
        25.11       25.11       25.10       25.10       25.09       25.09       25.09       25.08       25.08       25.07    
        25.07       25.07       25.06       25.06       25.05       25.05       25.05       25.04       25.04       25.04    
        25.03       25.03       25.02       25.02       25.02       25.01       25.01       25.01       25.00       25.00    
  25    25.12       25.12       25.12       25.12       25.12       25.12       25.11       25.11       25.11       25.10    
        25.10       25.10       25.09       25.09       25.09       25.08       25.08       25.08       25.07       25.07    
        25.06       25.06       25.06       25.05       25.05       25.05       25.04       25.04       25.04       25.03    
        25.03       25.03       25.02       25.02       25.02       25.01       25.01       25.01       25.00       25.00    
  26    25.11       25.11       25.11       25.11       25.11       25.11       25.10       25.10       25.10       25.10    
        25.09       25.09       25.09       25.08       25.08       25.08       25.07       25.07       25.07       25.06    
        25.06       25.06       25.05       25.05       25.05       25.04       25.04       25.04       25.03       25.03    
        25.03       25.02       25.02       25.02       25.02       25.01       25.01       25.01       25.00       25.00    
  27    25.10       25.10       25.10       25.10       25.10       25.10       25.09       25.09       25.09       25.09    
        25.09       25.08       25.08       25.08       25.07       25.07       25.07       25.06       25.06       25.06    
        25.06       25.05       25.05       25.05       25.04       25.04       25.04       25.03       25.03       25.03    
        25.03       25.02       25.02       25.02       25.01       25.01       25.01       25.01       25.00       25.00    
  28    25.09       25.09       25.09       25.09       25.09       25.09       25.09       25.08       25.08       25.08    
        25.08       25.08       25.07       25.07       25.07       25.06       25.06       25.06       25.06       25.05    
        25.05       25.05       25.05       25.04       25.04       25.04       25.03       25.03       25.03       25.03    
        25.02       25.02       25.02       25.02       25.01       25.01       25.01       25.01       25.00       25.00    
  29    25.08       25.08       25.08       25.08       25.08       25.08       25.08       25.08       25.07       25.07    
        25.07       25.07       25.07       25.06       25.06       25.06       25.06       25.05       25.05       25.05    
        25.05       25.04       25.04       25.04       25.04       25.03       25.03       25.03       25.03       25.02    
        25.02       25.02       25.02       25.01       25.01       25.01       25.01       25.00       25.00       25.00    
  30    25.07       25.07       25.07       25.07       25.07       25.07       25.07       25.07       25.07       25.07    
        25.06       25.06       25.06       25.06       25.06       25.05       25.05       25.05       25.05       25.04    
        25.04       25.04       25.04       25.04       25.03       25.03       25.03       25.03       25.02       25.02    
        25.02       25.02       25.02       25.01       25.01       25.01       25.01       25.00       25.00       25.00    
  31    25.07       25.07       25.07       25.07       25.06       25.06       25.06       25.06       25.06       25.06    
        25.06       25.05       25.05       25.05       25.05       25.05       25.05       25.04       25.04       25.04    
        25.04       25.04       25.03       25.03       25.03       25.03       25.03       25.02       25.02       25.02    
        25.02       25.02       25.01       25.01       25.01       25.01       25.01       25.00       25.00       25.00    
  32    25.06       25.06       25.06       25.06       25.06       25.06       25.05       25.05       25.05       25.05    
        25.05       25.05       25.05       25.05       25.04       25.04       25.04       25.04       25.04       25.04    
        25.03       25.03       25.03       25.03       25.03       25.02       25.02       25.02       25.02       25.02    
        25.02       25.01       25.01       25.01       25.01       25.01       25.01       25.00       25.00       25.00    
  33    25.05       25.05       25.05       25.05       25.05       25.05       25.05       25.05       25.05       25.04    
        25.04       25.04       25.04       25.04       25.04       25.04       25.04       25.03       25.03       25.03    
        25.03       25.03       25.03       25.02       25.02       25.02       25.02       25.02       25.02       25.02    
        25.01       25.01       25.01       25.01       25.01       25.01       25.00       25.00       25.00       25.00    
  34    25.04       25.04       25.04       25.04       25.04       25.04       25.04       25.04       25.04       25.04    
        25.04       25.04       25.03       25.03       25.03       25.03       25.03       25.03       25.03       25.03    
        25.02       25.02       25.02       25.02       25.02       25.02       25.02       25.02       25.01       25.01    
        25.01       25.01       25.01       25.01       25.01       25.01       25.00       25.00       25.00       25.00    
  35    25.04       25.04       25.04       25.03       25.03       25.03       25.03       25.03       25.03       25.03    
        25.03       25.03       25.03       25.03       25.03       25.03       25.02       25.02       25.02       25.02    
        25.02       25.02       25.02       25.02       25.02       25.02       25.01       25.01       25.01       25.01    
        25.01       25.01       25.01       25.01       25.01       25.00       25.00       25.00       25.00       25.00    
  36    25.03       25.03       25.03       25.03       25.03       25.03       25.03       25.03       25.03       25.03    
        25.02       25.02       25.02       25.02       25.02       25.02       25.02       25.02       25.02       25.02    
        25.02       25.02       25.01       25.01       25.01       25.01       25.01       25.01       25.01       25.01    
        25.01       25.01       25.01       25.01       25.00       25.00       25.00       25.00       25.00       25.00    
  37    25.02       25.02       25.02       25.02       25.02       25.02       25.02       25.02       25.02       25.02    
        25.02       25.02       25.02       25.02       25.02       25.02       25.01       25.01       25.01       25.01    
        25.01       25.01       25.01       25.01       25.01       25.01       25.01       25.01       25.01       25.01    
        25.01       25.01       25.00       25.00       25.00       25.00       25.00       25.00       25.00       25.00    
  38    25.01       25.01       25.01       25.01       25.01       25.01       25.01       25.01       25.01       25.01    
        25.01       25.01       25.01       25.01       25.01       25.01       25.01       25.01       25.01       25.01    
        25.01       25.01       25.01       25.01       25.01       25.01       25.01       25.01       25.00       25.00    
        25.00       25.00       25.00       25.00       25.00       25.00       25.00       25.00       25.00       25.00    
  39    25.01       25.01       25.01       25.01       25.01       25.01       25.01       25.01       25.01       25.01    
        25.01       25.01       25.01       25.01       25.01       25.01       25.00       25.00       25.00       25.00    
        25.00       25.00       25.00       25.00       25.00       25.00       25.00       25.00       25.00       25.00    
        25.00       25.00       25.00       25.00       25.00       25.00       25.00       25.00       25.00       25.00    
  40    25.00       25.00       25.00       25.00       25.00       25.00       25.00       25.00       25.00       25.00    
        25.00       25.00       25.00       25.00       25.00       25.00       25.00       25.00       25.00       25.00    
        25.00       25.00       25.00       25.00       25.00       25.00       25.00       25.00       25.00       25.00    
        25.00       25.00       25.00       25.00       25.00       25.00       25.00       25.00       25.00       25.00    
1
              HEAD IN LAYER  11 AT END OF TIME STEP   1 IN STRESS PERIOD    3
  ---------------------------------------------------------------------------

            1           2           3           4           5           6           7           8           9          10
           11          12          13          14          15          16          17          18          19          20
           21          22          23          24          25          26          27          28          29          30
           31          32          33          34          35          36          37          38          39          40
 ........................................................................................................................
   1    45.51       43.90       40.42       37.42       34.96       33.00       31.39       30.08       29.02       28.17    
        27.48       26.93       26.50       26.16       25.89       25.68       25.51       25.39       25.30       25.23    
        25.19       25.16       25.15       25.13       25.12       25.11       25.10       25.09       25.08       25.07    
        25.07       25.06       25.05       25.04       25.04       25.03       25.02       25.01       25.01       25.00    
   2    43.90       42.49       39.40       36.73       34.51       32.69       31.16       29.92       28.91       28.09    
        27.42       26.89       26.47       26.13       25.87       25.66       25.50       25.38       25.29       25.23    
        25.19       25.16       25.15       25.13       25.12       25.11       25.10       25.09       25.08       25.07    
        25.07       25.06       25.05       25.04       25.04       25.03       25.02       25.01       25.01       25.00    
   3    40.42       39.40       37.50       35.51       33.70       32.13       30.77       29.64       28.70       27.94    
        27.31       26.81       26.41       26.09       25.84       25.64       25.49       25.37       25.29       25.22    
        25.18       25.16       25.14       25.13       25.12       25.11       25.10       25.09       25.08       25.07    
        25.07       25.06       25.05       25.04       25.04       25.03       25.02       25.01       25.01       25.00    
   4    37.42       36.73       35.51       34.09       32.69       31.40       30.25       29.25       28.42       27.73    
        27.16       26.70       26.33       26.03       25.79       25.60       25.46       25.35       25.27       25.22    
        25.18       25.15       25.14       25.13       25.12       25.11       25.10       25.09       25.08       25.07    
        25.07       25.06       25.05       25.04       25.03       25.03       25.02       25.01       25.01       25.00    
   5    34.96       34.51       33.70       32.69       31.62       30.59       29.64       28.80       28.08       27.48    
        26.97       26.56       26.22       25.95       25.73       25.56       25.43       25.33       25.26       25.21    
        25.17       25.15       25.14       25.13       25.12       25.11       25.10       25.09       25.08       25.07    
        25.06       25.06       25.05       25.04       25.03       25.03       25.02       25.01       25.01       25.00    
   6    33.00       32.69       32.13       31.40       30.59       29.78       29.02       28.33       27.72       27.20    
        26.77       26.40       26.11       25.86       25.67       25.52       25.40       25.31       25.24       25.19    
        25.16       25.14       25.14       25.13       25.12       25.11       25.10       25.09       25.08       25.07    
        25.06       25.06       25.05       25.04       25.03       25.03       25.02       25.01       25.01       25.00    
   7    31.39       31.16       30.77       30.25       29.64       29.02       28.41       27.86       27.36       26.93    
        26.55       26.24       25.98       25.77       25.60       25.46       25.36       25.28       25.22       25.18    
        25.16       25.14       25.13       25.12       25.11       25.10       25.09       25.09       25.08       25.07    
        25.06       25.05       25.05       25.04       25.03       25.03       25.02       25.01       25.01       25.00    
   8    30.08       29.92       29.64       29.25       28.80       28.33       27.86       27.41       27.01       26.65    
        26.35       26.08       25.86       25.68       25.53       25.41       25.32       25.26       25.21       25.17    
        25.15       25.14       25.13       25.12       25.11       25.10       25.09       25.08       25.08       25.07    
        25.06       25.05       25.05       25.04       25.03       25.03       25.02       25.01       25.01       25.00    
   9    29.02       28.91       28.70       28.42       28.08       27.72       27.36       27.01       26.69       26.40    
        26.15       25.93       25.74       25.59       25.46       25.36       25.29       25.23       25.19       25.16    
        25.14       25.13       25.13       25.12       25.11       25.10       25.09       25.08       25.07       25.07    
        25.06       25.05       25.05       25.04       25.03       25.03       25.02       25.01       25.01       25.00    
  10    28.17       28.09       27.94       27.73       27.48       27.20       26.93       26.65       26.40       26.17    
        25.96       25.78       25.63       25.50       25.40       25.32       25.25       25.21       25.17       25.15    
        25.14       25.13       25.12       25.11       25.10       25.10       25.09       25.08       25.07       25.07    
        25.06       25.05       25.04       25.04       25.03       25.03       25.02       25.01       25.01       25.00    
  11    27.48       27.42       27.31       27.16       26.97       26.77       26.55       26.35       26.15       25.96    
        25.80       25.65       25.53       25.43       25.34       25.28       25.22       25.19       25.16       25.14    
        25.13       25.13       25.12       25.11       25.10       25.09       25.09       25.08       25.07       25.06    
        25.06       25.05       25.04       25.04       25.03       25.02       25.02       25.01       25.01       25.00    
  12    26.93       26.89       26.81       26.70       26.56       26.40       26.24       26.08       25.93       25.78    
        25.65       25.54       25.44       25.36       25.29       25.24       25.20       25.17       25.15       25.14    
        25.13       25.12       25.11       25.11       25.10       25.09       25.08       25.08       25.07       25.06    
        25.05       25.05       25.04       25.04       25.03       25.02       25.02       25.01       25.01       25.00    
  13    26.50       26.47       26.41       26.33       26.22       26.11       25.98       25.86       25.74       25.63    
        25.53       25.44       25.36       25.30       25.25       25.21       25.18       25.15       25.14       25.13    
        25.12       25.12       25.11       25.10       25.09       25.09       25.08       25.07       25.07       25.06    
        25.05       25.05       25.04       25.03       25.03       25.02       25.02       25.01       25.01       25.00    
  14    26.16       26.13       26.09       26.03       25.95       25.86       25.77       25.68       25.59       25.50    
        25.43       25.36       25.30       25.25       25.21       25.18       25.16       25.14       25.14       25.13    
        25.12       25.11       25.10       25.10       25.09       25.08       25.08       25.07       25.06       25.06    
        25.05       25.05       25.04       25.03       25.03       25.02       25.02       25.01       25.01       25.00    
  15    25.89       25.87       25.84       25.79       25.73       25.67       25.60       25.53       25.46       25.40    
        25.34       25.29       25.25       25.21       25.18       25.16       25.15       25.14       25.13       25.12    
        25.11       25.11       25.10       25.09       25.09       25.08       25.07       25.07       25.06       25.06    
        25.05       25.04       25.04       25.03       25.03       25.02       25.02       25.01       25.01       25.00    
  16    25.68       25.66       25.64       25.60       25.56       25.52       25.46       25.41       25.36       25.32    
        25.28       25.24       25.21       25.18       25.16       25.15       25.14       25.13       25.12       25.12    
        25.11       25.10       25.10       25.09       25.08       25.08       25.07       25.06       25.06       25.05    
        25.05       25.04       25.04       25.03       25.03       25.02       25.02       25.01       25.01       25.00    
  17    25.51       25.50       25.49       25.46       25.43       25.40       25.36       25.32       25.29       25.25    
        25.22       25.20       25.18       25.16       25.15       25.14       25.13       25.12       25.12       25.11    
        25.10       25.10       25.09       25.09       25.08       25.07       25.07       25.06       25.06       25.05    
        25.05       25.04       25.04       25.03       25.02       25.02       25.01       25.01       25.00       25.00    
  18    25.39       25.38       25.37       25.35       25.33       25.31       25.28       25.26       25.23       25.21    
        25.19       25.17       25.15       25.14       25.14       25.13       25.12       25.12       25.11       25.11    
        25.10       25.09       25.09       25.08       25.08       25.07       25.06       25.06       25.05       25.05    
        25.04       25.04       25.03       25.03       25.02       25.02       25.01       25.01       25.00       25.00    
  19    25.30       25.29       25.29       25.27       25.26       25.24       25.22       25.21       25.19       25.17    
        25.16       25.15       25.14       25.14       25.13       25.12       25.12       25.11       25.11       25.10    
        25.09       25.09       25.08       25.08       25.07       25.07       25.06       25.06       25.05       25.05    
        25.04       25.04       25.03       25.03       25.02       25.02       25.01       25.01       25.00       25.00    
  20    25.23       25.23       25.22       25.22       25.21       25.19       25.18       25.17       25.16       25.15    
        25.14       25.14       25.13       25.13       25.12       25.12       25.11       25.11       25.10       25.09    
        25.09       25.08       25.08       25.07       25.07       25.06       25.06       25.05       25.05       25.04    
        25.04       25.04       25.03       25.03       25.02       25.02       25.01       25.01       25.00       25.00    
  21    25.19       25.19       25.18       25.18       25.17       25.16       25.16       25.15       25.14       25.14    
        25.13       25.13       25.12       25.12       25.11       25.11       25.10       25.10       25.09       25.09    
        25.08       25.08       25.07       25.07       25.06       25.06       25.06       25.05       25.05       25.04    
        25.04       25.03       25.03       25.02       25.02       25.02       25.01       25.01       25.00       25.00    
  22    25.16       25.16       25.16       25.15       25.15       25.14       25.14       25.14       25.13       25.13    
        25.13       25.12       25.12       25.11       25.11       25.10       25.10       25.09       25.09       25.08    
        25.08       25.07       25.07       25.07       25.06       25.06       25.05       25.05       25.04       25.04    
        25.04       25.03       25.03       25.02       25.02       25.02       25.01       25.01       25.00       25.00    
  23    25.15       25.15       25.14       25.14       25.14       25.14       25.13       25.13       25.13       25.12    
        25.12       25.11       25.11       25.10       25.10       25.10       25.09       25.09       25.08       25.08    
        25.07       25.07       25.07       25.06       25.06       25.05       25.05       25.05       25.04       25.04    
        25.03       25.03       25.03       25.02       25.02       25.01       25.01       25.01       25.00       25.00    
  24    25.13       25.13       25.13       25.13       25.13       25.13       25.12       25.12       25.12       25.11    
        25.11       25.11       25.10       25.10       25.09       25.09       25.09       25.08       25.08       25.07    
        25.07       25.07       25.06       25.06       25.05       25.05       25.05       25.04       25.04       25.04    
        25.03       25.03       25.02       25.02       25.02       25.01       25.01       25.01       25.00       25.00    
  25    25.12       25.12       25.12       25.12       25.12       25.12       25.11       25.11       25.11       25.10    
        25.10       25.10       25.09       25.09       25.09       25.08       25.08       25.08       25.07       25.07    
        25.06       25.06       25.06       25.05       25.05       25.05       25.04       25.04       25.04       25.03    
        25.03       25.03       25.02       25.02       25.02       25.01       25.01       25.01       25.00       25.00    
  26    25.11       25.11       25.11       25.11       25.11       25.11       25.10       25.10       25.10       25.10    
        25.09       25.09       25.09       25.08       25.08       25.08       25.07       25.07       25.07       25.06    
        25.06       25.06       25.05       25.05       25.05       25.04       25.04       25.04       25.03       25.03    
        25.03       25.02       25.02       25.02       25.02       25.01       25.01       25.01       25.00       25.00    
  27    25.10       25.10       25.10       25.10       25.10       25.10       25.09       25.09       25.09       25.09    
        25.09       25.08       25.08       25.08       25.07       25.07       25.07       25.06       25.06       25.06    
        25.06       25.05       25.05       25.05       25.04       25.04       25.04       25.03       25.03       25.03    
        25.03       25.02       25.02       25.02       25.01       25.01       25.01       25.01       25.00       25.00    
  28    25.09       25.09       25.09       25.09       25.09       25.09       25.09       25.08       25.08       25.08    
        25.08       25.08       25.07       25.07       25.07       25.06       25.06       25.06       25.06       25.05    
        25.05       25.05       25.05       25.04       25.04       25.04       25.03       25.03       25.03       25.03    
        25.02       25.02       25.02       25.02       25.01       25.01       25.01       25.01       25.00       25.00    
  29    25.08       25.08       25.08       25.08       25.08       25.08       25.08       25.08       25.07       25.07    
        25.07       25.07       25.07       25.06       25.06       25.06       25.06       25.05       25.05       25.05    
        25.05       25.04       25.04       25.04       25.04       25.03       25.03       25.03       25.03       25.02    
        25.02       25.02       25.02       25.01       25.01       25.01       25.01       25.00       25.00       25.00    
  30    25.07       25.07       25.07       25.07       25.07       25.07       25.07       25.07       25.07       25.07    
        25.06       25.06       25.06       25.06       25.06       25.05       25.05       25.05       25.05       25.04    
        25.04       25.04       25.04       25.04       25.03       25.03       25.03       25.03       25.02       25.02    
        25.02       25.02       25.02       25.01       25.01       25.01       25.01       25.00       25.00       25.00    
  31    25.07       25.07       25.07       25.07       25.06       25.06       25.06       25.06       25.06       25.06    
        25.06       25.05       25.05       25.05       25.05       25.05       25.05       25.04       25.04       25.04    
        25.04       25.04       25.03       25.03       25.03       25.03       25.03       25.02       25.02       25.02    
        25.02       25.02       25.01       25.01       25.01       25.01       25.01       25.00       25.00       25.00    
  32    25.06       25.06       25.06       25.06       25.06       25.06       25.05       25.05       25.05       25.05    
        25.05       25.05       25.05       25.05       25.04       25.04       25.04       25.04       25.04       25.04    
        25.03       25.03       25.03       25.03       25.03       25.02       25.02       25.02       25.02       25.02    
        25.02       25.01       25.01       25.01       25.01       25.01       25.01       25.00       25.00       25.00    
  33    25.05       25.05       25.05       25.05       25.05       25.05       25.05       25.05       25.05       25.04    
        25.04       25.04       25.04       25.04       25.04       25.04       25.04       25.03       25.03       25.03    
        25.03       25.03       25.03       25.02       25.02       25.02       25.02       25.02       25.02       25.02    
        25.01       25.01       25.01       25.01       25.01       25.01       25.00       25.00       25.00       25.00    
  34    25.04       25.04       25.04       25.04       25.04       25.04       25.04       25.04       25.04       25.04    
        25.04       25.04       25.03       25.03       25.03       25.03       25.03       25.03       25.03       25.03    
        25.02       25.02       25.02       25.02       25.02       25.02       25.02       25.02       25.01       25.01    
        25.01       25.01       25.01       25.01       25.01       25.01       25.00       25.00       25.00       25.00    
  35    25.04       25.04       25.04       25.03       25.03       25.03       25.03       25.03       25.03       25.03    
        25.03       25.03       25.03       25.03       25.03       25.03       25.02       25.02       25.02       25.02    
        25.02       25.02       25.02       25.02       25.02       25.02       25.01       25.01       25.01       25.01    
        25.01       25.01       25.01       25.01       25.01       25.00       25.00       25.00       25.00       25.00    
  36    25.03       25.03       25.03       25.03       25.03       25.03       25.03       25.03       25.03       25.03    
        25.02       25.02       25.02       25.02       25.02       25.02       25.02       25.02       25.02       25.02    
        25.02       25.02       25.01       25.01       25.01       25.01       25.01       25.01       25.01       25.01    
        25.01       25.01       25.01       25.01       25.00       25.00       25.00       25.00       25.00       25.00    
  37    25.02       25.02       25.02       25.02       25.02       25.02       25.02       25.02       25.02       25.02    
        25.02       25.02       25.02       25.02       25.02       25.02       25.01       25.01       25.01       25.01    
        25.01       25.01       25.01       25.01       25.01       25.01       25.01       25.01       25.01       25.01    
        25.01       25.01       25.00       25.00       25.00       25.00       25.00       25.00       25.00       25.00    
  38    25.01       25.01       25.01       25.01       25.01       25.01       25.01       25.01       25.01       25.01    
        25.01       25.01       25.01       25.01       25.01       25.01       25.01       25.01       25.01       25.01    
        25.01       25.01       25.01       25.01       25.01       25.01       25.01       25.01       25.00       25.00    
        25.00       25.00       25.00       25.00       25.00       25.00       25.00       25.00       25.00       25.00    
  39    25.01       25.01       25.01       25.01       25.01       25.01       25.01       25.01       25.01       25.01    
        25.01       25.01       25.01       25.01       25.01       25.01       25.00       25.00       25.00       25.00    
        25.00       25.00       25.00       25.00       25.00       25.00       25.00       25.00       25.00       25.00    
        25.00       25.00       25.00       25.00       25.00       25.00       25.00       25.00       25.00       25.00    
  40    25.00       25.00       25.00       25.00       25.00       25.00       25.00       25.00       25.00       25.00    
        25.00       25.00       25.00       25.00       25.00       25.00       25.00       25.00       25.00       25.00    
        25.00       25.00       25.00       25.00       25.00       25.00       25.00       25.00       25.00       25.00    
        25.00       25.00       25.00       25.00       25.00       25.00       25.00       25.00       25.00       25.00    
1
              HEAD IN LAYER  12 AT END OF TIME STEP   1 IN STRESS PERIOD    3
  ---------------------------------------------------------------------------

            1           2           3           4           5           6           7           8           9          10
           11          12          13          14          15          16          17          18          19          20
           21          22          23          24          25          26          27          28          29          30
           31          32          33          34          35          36          37          38          39          40
 ........................................................................................................................
   1    45.20       43.62       40.35       37.40       34.96       33.00       31.40       30.09       29.03       28.18    
        27.49       26.94       26.51       26.16       25.89       25.68       25.52       25.39       25.30       25.24    
        25.19       25.16       25.15       25.13       25.12       25.11       25.10       25.09       25.08       25.07    
        25.07       25.06       25.05       25.04       25.04       25.03       25.02       25.01       25.01       25.00    
   2    43.62       42.23       39.34       36.72       34.51       32.69       31.17       29.93       28.92       28.10    
        27.43       26.90       26.47       26.14       25.88       25.67       25.51       25.39       25.30       25.23    
        25.19       25.16       25.15       25.13       25.12       25.11       25.10       25.09       25.08       25.07    
        25.07       25.06       25.05       25.04       25.04       25.03       25.02       25.01       25.01       25.00    
   3    40.35       39.34       37.47       35.50       33.70       32.13       30.78       29.65       28.71       27.94    
        27.32       26.82       26.41       26.10       25.84       25.64       25.49       25.37       25.29       25.23    
        25.18       25.16       25.14       25.13       25.12       25.11       25.10       25.09       25.08       25.07    
        25.07       25.06       25.05       25.04       25.04       25.03       25.02       25.01       25.01       25.00    
   4    37.40       36.72       35.50       34.09       32.69       31.40       30.25       29.26       28.43       27.73    
        27.17       26.70       26.33       26.03       25.80       25.61       25.46       25.36       25.28       25.22    
        25.18       25.15       25.14       25.13       25.12       25.11       25.10       25.09       25.08       25.07    
        25.07       25.06       25.05       25.04       25.03       25.03       25.02       25.01       25.01       25.00    
   5    34.96       34.51       33.70       32.69       31.63       30.60       29.65       28.81       28.09       27.48    
        26.98       26.56       26.23       25.96       25.74       25.57       25.43       25.33       25.26       25.21    
        25.17       25.15       25.14       25.13       25.12       25.11       25.10       25.09       25.08       25.07    
        25.06       25.06       25.05       25.04       25.03       25.03       25.02       25.01       25.01       25.00    
   6    33.00       32.69       32.13       31.40       30.60       29.79       29.02       28.34       27.73       27.21    
        26.77       26.41       26.11       25.87       25.67       25.52       25.40       25.31       25.24       25.20    
        25.16       25.15       25.14       25.13       25.12       25.11       25.10       25.09       25.08       25.07    
        25.06       25.06       25.05       25.04       25.03       25.03       25.02       25.01       25.01       25.00    
   7    31.40       31.17       30.78       30.25       29.65       29.02       28.42       27.87       27.37       26.93    
        26.56       26.25       25.99       25.78       25.60       25.47       25.36       25.28       25.23       25.18    
        25.16       25.14       25.13       25.12       25.11       25.10       25.09       25.09       25.08       25.07    
        25.06       25.05       25.05       25.04       25.03       25.03       25.02       25.01       25.01       25.00    
   8    30.09       29.93       29.65       29.26       28.81       28.34       27.87       27.42       27.02       26.66    
        26.35       26.09       25.87       25.68       25.53       25.42       25.33       25.26       25.21       25.17    
        25.15       25.14       25.13       25.12       25.11       25.10       25.09       25.08       25.08       25.07    
        25.06       25.05       25.05       25.04       25.03       25.03       25.02       25.01       25.01       25.00    
   9    29.03       28.92       28.71       28.43       28.09       27.73       27.37       27.02       26.70       26.41    
        26.15       25.93       25.75       25.59       25.47       25.37       25.29       25.23       25.19       25.16    
        25.14       25.13       25.13       25.12       25.11       25.10       25.09       25.08       25.07       25.07    
        25.06       25.05       25.05       25.04       25.03       25.03       25.02       25.01       25.01       25.00    
  10    28.18       28.10       27.94       27.73       27.48       27.21       26.93       26.66       26.41       26.17    
        25.97       25.79       25.63       25.51       25.40       25.32       25.26       25.21       25.17       25.15    
        25.14       25.13       25.12       25.11       25.10       25.10       25.09       25.08       25.07       25.07    
        25.06       25.05       25.04       25.04       25.03       25.03       25.02       25.01       25.01       25.00    
  11    27.49       27.43       27.32       27.17       26.98       26.77       26.56       26.35       26.15       25.97    
        25.80       25.66       25.53       25.43       25.34       25.28       25.23       25.19       25.16       25.14    
        25.14       25.13       25.12       25.11       25.10       25.09       25.09       25.08       25.07       25.06    
        25.06       25.05       25.04       25.04       25.03       25.02       25.02       25.01       25.01       25.00    
  12    26.94       26.90       26.82       26.70       26.56       26.41       26.25       26.09       25.93       25.79    
        25.66       25.54       25.44       25.36       25.29       25.24       25.20       25.17       25.15       25.14    
        25.13       25.12       25.11       25.11       25.10       25.09       25.08       25.08       25.07       25.06    
        25.05       25.05       25.04       25.04       25.03       25.02       25.02       25.01       25.01       25.00    
  13    26.51       26.47       26.41       26.33       26.23       26.11       25.99       25.87       25.75       25.63    
        25.53       25.44       25.37       25.30       25.25       25.21       25.18       25.15       25.14       25.13    
        25.12       25.12       25.11       25.10       25.09       25.09       25.08       25.07       25.07       25.06    
        25.05       25.05       25.04       25.03       25.03       25.02       25.02       25.01       25.01       25.00    
  14    26.16       26.14       26.10       26.03       25.96       25.87       25.78       25.68       25.59       25.51    
        25.43       25.36       25.30       25.25       25.21       25.18       25.16       25.14       25.14       25.13    
        25.12       25.11       25.10       25.10       25.09       25.08       25.08       25.07       25.06       25.06    
        25.05       25.05       25.04       25.03       25.03       25.02       25.02       25.01       25.01       25.00    
  15    25.89       25.88       25.84       25.80       25.74       25.67       25.60       25.53       25.47       25.40    
        25.34       25.29       25.25       25.21       25.18       25.16       25.15       25.14       25.13       25.12    
        25.11       25.11       25.10       25.09       25.09       25.08       25.07       25.07       25.06       25.06    
        25.05       25.04       25.04       25.03       25.03       25.02       25.02       25.01       25.01       25.00    
  16    25.68       25.67       25.64       25.61       25.57       25.52       25.47       25.42       25.37       25.32    
        25.28       25.24       25.21       25.18       25.16       25.15       25.14       25.13       25.12       25.12    
        25.11       25.10       25.10       25.09       25.08       25.08       25.07       25.06       25.06       25.05    
        25.05       25.04       25.04       25.03       25.03       25.02       25.02       25.01       25.01       25.00    
  17    25.52       25.51       25.49       25.46       25.43       25.40       25.36       25.33       25.29       25.26    
        25.23       25.20       25.18       25.16       25.15       25.14       25.13       25.12       25.12       25.11    
        25.10       25.10       25.09       25.09       25.08       25.07       25.07       25.06       25.06       25.05    
        25.05       25.04       25.04       25.03       25.02       25.02       25.01       25.01       25.00       25.00    
  18    25.39       25.39       25.37       25.36       25.33       25.31       25.28       25.26       25.23       25.21    
        25.19       25.17       25.15       25.14       25.14       25.13       25.12       25.12       25.11       25.11    
        25.10       25.09       25.09       25.08       25.08       25.07       25.06       25.06       25.05       25.05    
        25.04       25.04       25.03       25.03       25.02       25.02       25.01       25.01       25.00       25.00    
  19    25.30       25.30       25.29       25.28       25.26       25.24       25.23       25.21       25.19       25.17    
        25.16       25.15       25.14       25.14       25.13       25.12       25.12       25.11       25.11       25.10    
        25.09       25.09       25.08       25.08       25.07       25.07       25.06       25.06       25.05       25.05    
        25.04       25.04       25.03       25.03       25.02       25.02       25.01       25.01       25.00       25.00    
  20    25.24       25.23       25.23       25.22       25.21       25.20       25.18       25.17       25.16       25.15    
        25.14       25.14       25.13       25.13       25.12       25.12       25.11       25.11       25.10       25.09    
        25.09       25.08       25.08       25.07       25.07       25.06       25.06       25.05       25.05       25.04    
        25.04       25.04       25.03       25.03       25.02       25.02       25.01       25.01       25.00       25.00    
  21    25.19       25.19       25.18       25.18       25.17       25.16       25.16       25.15       25.14       25.14    
        25.14       25.13       25.12       25.12       25.11       25.11       25.10       25.10       25.09       25.09    
        25.08       25.08       25.07       25.07       25.06       25.06       25.06       25.05       25.05       25.04    
        25.04       25.03       25.03       25.02       25.02       25.02       25.01       25.01       25.00       25.00    
  22    25.16       25.16       25.16       25.15       25.15       25.15       25.14       25.14       25.13       25.13    
        25.13       25.12       25.12       25.11       25.11       25.10       25.10       25.09       25.09       25.08    
        25.08       25.07       25.07       25.07       25.06       25.06       25.05       25.05       25.04       25.04    
        25.04       25.03       25.03       25.02       25.02       25.02       25.01       25.01       25.00       25.00    
  23    25.15       25.15       25.14       25.14       25.14       25.14       25.13       25.13       25.13       25.12    
        25.12       25.11       25.11       25.10       25.10       25.10       25.09       25.09       25.08       25.08    
        25.07       25.07       25.07       25.06       25.06       25.05       25.05       25.05       25.04       25.04    
        25.03       25.03       25.03       25.02       25.02       25.01       25.01       25.01       25.00       25.00    
  24    25.13       25.13       25.13       25.13       25.13       25.13       25.12       25.12       25.12       25.11    
        25.11       25.11       25.10       25.10       25.09       25.09       25.09       25.08       25.08       25.07    
        25.07       25.07       25.06       25.06       25.05       25.05       25.05       25.04       25.04       25.04    
        25.03       25.03       25.02       25.02       25.02       25.01       25.01       25.01       25.00       25.00    
  25    25.12       25.12       25.12       25.12       25.12       25.12       25.11       25.11       25.11       25.10    
        25.10       25.10       25.09       25.09       25.09       25.08       25.08       25.08       25.07       25.07    
        25.06       25.06       25.06       25.05       25.05       25.05       25.04       25.04       25.04       25.03    
        25.03       25.03       25.02       25.02       25.02       25.01       25.01       25.01       25.00       25.00    
  26    25.11       25.11       25.11       25.11       25.11       25.11       25.10       25.10       25.10       25.10    
        25.09       25.09       25.09       25.08       25.08       25.08       25.07       25.07       25.07       25.06    
        25.06       25.06       25.05       25.05       25.05       25.04       25.04       25.04       25.03       25.03    
        25.03       25.02       25.02       25.02       25.02       25.01       25.01       25.01       25.00       25.00    
  27    25.10       25.10       25.10       25.10       25.10       25.10       25.09       25.09       25.09       25.09    
        25.09       25.08       25.08       25.08       25.07       25.07       25.07       25.06       25.06       25.06    
        25.06       25.05       25.05       25.05       25.04       25.04       25.04       25.03       25.03       25.03    
        25.03       25.02       25.02       25.02       25.01       25.01       25.01       25.01       25.00       25.00    
  28    25.09       25.09       25.09       25.09       25.09       25.09       25.09       25.08       25.08       25.08    
        25.08       25.08       25.07       25.07       25.07       25.06       25.06       25.06       25.06       25.05    
        25.05       25.05       25.05       25.04       25.04       25.04       25.03       25.03       25.03       25.03    
        25.02       25.02       25.02       25.02       25.01       25.01       25.01       25.01       25.00       25.00    
  29    25.08       25.08       25.08       25.08       25.08       25.08       25.08       25.08       25.07       25.07    
        25.07       25.07       25.07       25.06       25.06       25.06       25.06       25.05       25.05       25.05    
        25.05       25.04       25.04       25.04       25.04       25.03       25.03       25.03       25.03       25.02    
        25.02       25.02       25.02       25.01       25.01       25.01       25.01       25.00       25.00       25.00    
  30    25.07       25.07       25.07       25.07       25.07       25.07       25.07       25.07       25.07       25.07    
        25.06       25.06       25.06       25.06       25.06       25.05       25.05       25.05       25.05       25.04    
        25.04       25.04       25.04       25.04       25.03       25.03       25.03       25.03       25.02       25.02    
        25.02       25.02       25.02       25.01       25.01       25.01       25.01       25.00       25.00       25.00    
  31    25.07       25.07       25.07       25.07       25.06       25.06       25.06       25.06       25.06       25.06    
        25.06       25.05       25.05       25.05       25.05       25.05       25.05       25.04       25.04       25.04    
        25.04       25.04       25.03       25.03       25.03       25.03       25.03       25.02       25.02       25.02    
        25.02       25.02       25.01       25.01       25.01       25.01       25.01       25.00       25.00       25.00    
  32    25.06       25.06       25.06       25.06       25.06       25.06       25.05       25.05       25.05       25.05    
        25.05       25.05       25.05       25.05       25.04       25.04       25.04       25.04       25.04       25.04    
        25.03       25.03       25.03       25.03       25.03       25.02       25.02       25.02       25.02       25.02    
        25.02       25.01       25.01       25.01       25.01       25.01       25.01       25.00       25.00       25.00    
  33    25.05       25.05       25.05       25.05       25.05       25.05       25.05       25.05       25.05       25.04    
        25.04       25.04       25.04       25.04       25.04       25.04       25.04       25.03       25.03       25.03    
        25.03       25.03       25.03       25.02       25.02       25.02       25.02       25.02       25.02       25.02    
        25.01       25.01       25.01       25.01       25.01       25.01       25.00       25.00       25.00       25.00    
  34    25.04       25.04       25.04       25.04       25.04       25.04       25.04       25.04       25.04       25.04    
        25.04       25.04       25.03       25.03       25.03       25.03       25.03       25.03       25.03       25.03    
        25.02       25.02       25.02       25.02       25.02       25.02       25.02       25.02       25.01       25.01    
        25.01       25.01       25.01       25.01       25.01       25.01       25.00       25.00       25.00       25.00    
  35    25.04       25.04       25.04       25.03       25.03       25.03       25.03       25.03       25.03       25.03    
        25.03       25.03       25.03       25.03       25.03       25.03       25.02       25.02       25.02       25.02    
        25.02       25.02       25.02       25.02       25.02       25.02       25.01       25.01       25.01       25.01    
        25.01       25.01       25.01       25.01       25.01       25.00       25.00       25.00       25.00       25.00    
  36    25.03       25.03       25.03       25.03       25.03       25.03       25.03       25.03       25.03       25.03    
        25.02       25.02       25.02       25.02       25.02       25.02       25.02       25.02       25.02       25.02    
        25.02       25.02       25.01       25.01       25.01       25.01       25.01       25.01       25.01       25.01    
        25.01       25.01       25.01       25.01       25.00       25.00       25.00       25.00       25.00       25.00    
  37    25.02       25.02       25.02       25.02       25.02       25.02       25.02       25.02       25.02       25.02    
        25.02       25.02       25.02       25.02       25.02       25.02       25.01       25.01       25.01       25.01    
        25.01       25.01       25.01       25.01       25.01       25.01       25.01       25.01       25.01       25.01    
        25.01       25.01       25.00       25.00       25.00       25.00       25.00       25.00       25.00       25.00    
  38    25.01       25.01       25.01       25.01       25.01       25.01       25.01       25.01       25.01       25.01    
        25.01       25.01       25.01       25.01       25.01       25.01       25.01       25.01       25.01       25.01    
        25.01       25.01       25.01       25.01       25.01       25.01       25.01       25.01       25.00       25.00    
        25.00       25.00       25.00       25.00       25.00       25.00       25.00       25.00       25.00       25.00    
  39    25.01       25.01       25.01       25.01       25.01       25.01       25.01       25.01       25.01       25.01    
        25.01       25.01       25.01       25.01       25.01       25.01       25.00       25.00       25.00       25.00    
        25.00       25.00       25.00       25.00       25.00       25.00       25.00       25.00       25.00       25.00    
        25.00       25.00       25.00       25.00       25.00       25.00       25.00       25.00       25.00       25.00    
  40    25.00       25.00       25.00       25.00       25.00       25.00       25.00       25.00       25.00       25.00    
        25.00       25.00       25.00       25.00       25.00       25.00       25.00       25.00       25.00       25.00    
        25.00       25.00       25.00       25.00       25.00       25.00       25.00       25.00       25.00       25.00    
        25.00       25.00       25.00       25.00       25.00       25.00       25.00       25.00       25.00       25.00    
1
              HEAD IN LAYER  13 AT END OF TIME STEP   1 IN STRESS PERIOD    3
  ---------------------------------------------------------------------------

            1           2           3           4           5           6           7           8           9          10
           11          12          13          14          15          16          17          18          19          20
           21          22          23          24          25          26          27          28          29          30
           31          32          33          34          35          36          37          38          39          40
 ........................................................................................................................
   1    45.00       43.43       40.30       37.38       34.96       33.00       31.40       30.09       29.04       28.18    
        27.49       26.95       26.51       26.17       25.89       25.68       25.52       25.39       25.30       25.24    
        25.19       25.16       25.15       25.13       25.12       25.11       25.10       25.09       25.08       25.07    
        25.07       25.06       25.05       25.04       25.04       25.03       25.02       25.01       25.01       25.00    
   2    43.43       42.05       39.30       36.71       34.51       32.69       31.18       29.94       28.93       28.10    
        27.44       26.90       26.48       26.14       25.88       25.67       25.51       25.39       25.30       25.23    
        25.19       25.16       25.15       25.13       25.12       25.11       25.10       25.09       25.08       25.07    
        25.07       25.06       25.05       25.04       25.04       25.03       25.02       25.01       25.01       25.00    
   3    40.30       39.30       37.46       35.50       33.70       32.13       30.79       29.65       28.72       27.95    
        27.32       26.82       26.42       26.10       25.84       25.64       25.49       25.37       25.29       25.23    
        25.19       25.16       25.14       25.13       25.12       25.11       25.10       25.09       25.08       25.07    
        25.07       25.06       25.05       25.04       25.04       25.03       25.02       25.01       25.01       25.00    
   4    37.38       36.71       35.50       34.09       32.70       31.41       30.26       29.27       28.43       27.74    
        27.17       26.71       26.33       26.04       25.80       25.61       25.47       25.36       25.28       25.22    
        25.18       25.15       25.14       25.13       25.12       25.11       25.10       25.09       25.08       25.07    
        25.07       25.06       25.05       25.04       25.03       25.03       25.02       25.01       25.01       25.00    
   5    34.96       34.51       33.70       32.70       31.63       30.60       29.65       28.82       28.10       27.49    
        26.98       26.57       26.23       25.96       25.74       25.57       25.44       25.34       25.26       25.21    
        25.17       25.15       25.14       25.13       25.12       25.11       25.10       25.09       25.08       25.07    
        25.06       25.06       25.05       25.04       25.03       25.03       25.02       25.01       25.01       25.00    
   6    33.00       32.69       32.13       31.41       30.60       29.79       29.03       28.34       27.74       27.22    
        26.78       26.41       26.11       25.87       25.67       25.52       25.40       25.31       25.24       25.20    
        25.17       25.15       25.14       25.13       25.12       25.11       25.10       25.09       25.08       25.07    
        25.06       25.06       25.05       25.04       25.03       25.03       25.02       25.01       25.01       25.00    
   7    31.40       31.18       30.79       30.26       29.65       29.03       28.43       27.87       27.37       26.94    
        26.56       26.25       25.99       25.78       25.61       25.47       25.36       25.28       25.23       25.19    
        25.16       25.14       25.13       25.12       25.11       25.10       25.09       25.09       25.08       25.07    
        25.06       25.05       25.05       25.04       25.03       25.03       25.02       25.01       25.01       25.00    
   8    30.09       29.94       29.65       29.27       28.82       28.34       27.87       27.43       27.02       26.66    
        26.35       26.09       25.87       25.68       25.54       25.42       25.33       25.26       25.21       25.17    
        25.15       25.14       25.13       25.12       25.11       25.10       25.09       25.08       25.08       25.07    
        25.06       25.05       25.05       25.04       25.03       25.03       25.02       25.01       25.01       25.00    
   9    29.04       28.93       28.72       28.43       28.10       27.74       27.37       27.02       26.70       26.41    
        26.15       25.93       25.75       25.59       25.47       25.37       25.29       25.23       25.19       25.16    
        25.15       25.13       25.13       25.12       25.11       25.10       25.09       25.08       25.07       25.07    
        25.06       25.05       25.05       25.04       25.03       25.03       25.02       25.01       25.01       25.00    
  10    28.18       28.10       27.95       27.74       27.49       27.22       26.94       26.66       26.41       26.18    
        25.97       25.79       25.64       25.51       25.40       25.32       25.26       25.21       25.18       25.15    
        25.14       25.13       25.12       25.11       25.10       25.10       25.09       25.08       25.07       25.07    
        25.06       25.05       25.04       25.04       25.03       25.03       25.02       25.01       25.01       25.00    
  11    27.49       27.44       27.32       27.17       26.98       26.78       26.56       26.35       26.15       25.97    
        25.80       25.66       25.53       25.43       25.35       25.28       25.23       25.19       25.16       25.14    
        25.14       25.13       25.12       25.11       25.10       25.09       25.09       25.08       25.07       25.06    
        25.06       25.05       25.04       25.04       25.03       25.02       25.02       25.01       25.01       25.00    
  12    26.95       26.90       26.82       26.71       26.57       26.41       26.25       26.09       25.93       25.79    
        25.66       25.54       25.44       25.36       25.29       25.24       25.20       25.17       25.15       25.14    
        25.13       25.12       25.11       25.11       25.10       25.09       25.08       25.08       25.07       25.06    
        25.05       25.05       25.04       25.04       25.03       25.02       25.02       25.01       25.01       25.00    
  13    26.51       26.48       26.42       26.33       26.23       26.11       25.99       25.87       25.75       25.64    
        25.53       25.44       25.37       25.30       25.25       25.21       25.18       25.16       25.14       25.13    
        25.12       25.12       25.11       25.10       25.09       25.09       25.08       25.07       25.07       25.06    
        25.05       25.05       25.04       25.03       25.03       25.02       25.02       25.01       25.01       25.00    
  14    26.17       26.14       26.10       26.04       25.96       25.87       25.78       25.68       25.59       25.51    
        25.43       25.36       25.30       25.25       25.21       25.18       25.16       25.14       25.14       25.13    
        25.12       25.11       25.10       25.10       25.09       25.08       25.08       25.07       25.06       25.06    
        25.05       25.05       25.04       25.03       25.03       25.02       25.02       25.01       25.01       25.00    
  15    25.89       25.88       25.84       25.80       25.74       25.67       25.61       25.54       25.47       25.40    
        25.35       25.29       25.25       25.21       25.18       25.16       25.15       25.14       25.13       25.12    
        25.11       25.11       25.10       25.09       25.09       25.08       25.07       25.07       25.06       25.06    
        25.05       25.04       25.04       25.03       25.03       25.02       25.02       25.01       25.01       25.00    
  16    25.68       25.67       25.64       25.61       25.57       25.52       25.47       25.42       25.37       25.32    
        25.28       25.24       25.21       25.18       25.16       25.15       25.14       25.13       25.12       25.12    
        25.11       25.10       25.10       25.09       25.08       25.08       25.07       25.06       25.06       25.05    
        25.05       25.04       25.04       25.03       25.03       25.02       25.02       25.01       25.01       25.00    
  17    25.52       25.51       25.49       25.47       25.44       25.40       25.36       25.33       25.29       25.26    
        25.23       25.20       25.18       25.16       25.15       25.14       25.13       25.12       25.12       25.11    
        25.10       25.10       25.09       25.09       25.08       25.07       25.07       25.06       25.06       25.05    
        25.05       25.04       25.04       25.03       25.02       25.02       25.01       25.01       25.00       25.00    
  18    25.39       25.39       25.37       25.36       25.34       25.31       25.28       25.26       25.23       25.21    
        25.19       25.17       25.16       25.14       25.14       25.13       25.12       25.12       25.11       25.11    
        25.10       25.09       25.09       25.08       25.08       25.07       25.06       25.06       25.05       25.05    
        25.04       25.04       25.03       25.03       25.02       25.02       25.01       25.01       25.00       25.00    
  19    25.30       25.30       25.29       25.28       25.26       25.24       25.23       25.21       25.19       25.18    
        25.16       25.15       25.14       25.14       25.13       25.12       25.12       25.11       25.11       25.10    
        25.09       25.09       25.08       25.08       25.07       25.07       25.06       25.06       25.05       25.05    
        25.04       25.04       25.03       25.03       25.02       25.02       25.01       25.01       25.00       25.00    
  20    25.24       25.23       25.23       25.22       25.21       25.20       25.19       25.17       25.16       25.15    
        25.14       25.14       25.13       25.13       25.12       25.12       25.11       25.11       25.10       25.09    
        25.09       25.08       25.08       25.07       25.07       25.06       25.06       25.05       25.05       25.04    
        25.04       25.04       25.03       25.03       25.02       25.02       25.01       25.01       25.00       25.00    
  21    25.19       25.19       25.19       25.18       25.17       25.17       25.16       25.15       25.15       25.14    
        25.14       25.13       25.12       25.12       25.11       25.11       25.10       25.10       25.09       25.09    
        25.08       25.08       25.07       25.07       25.06       25.06       25.06       25.05       25.05       25.04    
        25.04       25.03       25.03       25.02       25.02       25.02       25.01       25.01       25.00       25.00    
  22    25.16       25.16       25.16       25.15       25.15       25.15       25.14       25.14       25.13       25.13    
        25.13       25.12       25.12       25.11       25.11       25.10       25.10       25.09       25.09       25.08    
        25.08       25.07       25.07       25.07       25.06       25.06       25.05       25.05       25.04       25.04    
        25.04       25.03       25.03       25.02       25.02       25.02       25.01       25.01       25.00       25.00    
  23    25.15       25.15       25.14       25.14       25.14       25.14       25.13       25.13       25.13       25.12    
        25.12       25.11       25.11       25.10       25.10       25.10       25.09       25.09       25.08       25.08    
        25.07       25.07       25.07       25.06       25.06       25.05       25.05       25.05       25.04       25.04    
        25.03       25.03       25.03       25.02       25.02       25.01       25.01       25.01       25.00       25.00    
  24    25.13       25.13       25.13       25.13       25.13       25.13       25.12       25.12       25.12       25.11    
        25.11       25.11       25.10       25.10       25.09       25.09       25.09       25.08       25.08       25.07    
        25.07       25.07       25.06       25.06       25.05       25.05       25.05       25.04       25.04       25.04    
        25.03       25.03       25.02       25.02       25.02       25.01       25.01       25.01       25.00       25.00    
  25    25.12       25.12       25.12       25.12       25.12       25.12       25.11       25.11       25.11       25.10    
        25.10       25.10       25.09       25.09       25.09       25.08       25.08       25.08       25.07       25.07    
        25.06       25.06       25.06       25.05       25.05       25.05       25.04       25.04       25.04       25.03    
        25.03       25.03       25.02       25.02       25.02       25.01       25.01       25.01       25.00       25.00    
  26    25.11       25.11       25.11       25.11       25.11       25.11       25.10       25.10       25.10       25.10    
        25.09       25.09       25.09       25.08       25.08       25.08       25.07       25.07       25.07       25.06    
        25.06       25.06       25.05       25.05       25.05       25.04       25.04       25.04       25.03       25.03    
        25.03       25.02       25.02       25.02       25.02       25.01       25.01       25.01       25.00       25.00    
  27    25.10       25.10       25.10       25.10       25.10       25.10       25.09       25.09       25.09       25.09    
        25.09       25.08       25.08       25.08       25.07       25.07       25.07       25.06       25.06       25.06    
        25.06       25.05       25.05       25.05       25.04       25.04       25.04       25.03       25.03       25.03    
        25.03       25.02       25.02       25.02       25.01       25.01       25.01       25.01       25.00       25.00    
  28    25.09       25.09       25.09       25.09       25.09       25.09       25.09       25.08       25.08       25.08    
        25.08       25.08       25.07       25.07       25.07       25.06       25.06       25.06       25.06       25.05    
        25.05       25.05       25.05       25.04       25.04       25.04       25.03       25.03       25.03       25.03    
        25.02       25.02       25.02       25.02       25.01       25.01       25.01       25.01       25.00       25.00    
  29    25.08       25.08       25.08       25.08       25.08       25.08       25.08       25.08       25.07       25.07    
        25.07       25.07       25.07       25.06       25.06       25.06       25.06       25.05       25.05       25.05    
        25.05       25.04       25.04       25.04       25.04       25.03       25.03       25.03       25.03       25.02    
        25.02       25.02       25.02       25.01       25.01       25.01       25.01       25.00       25.00       25.00    
  30    25.07       25.07       25.07       25.07       25.07       25.07       25.07       25.07       25.07       25.07    
        25.06       25.06       25.06       25.06       25.06       25.05       25.05       25.05       25.05       25.04    
        25.04       25.04       25.04       25.04       25.03       25.03       25.03       25.03       25.02       25.02    
        25.02       25.02       25.02       25.01       25.01       25.01       25.01       25.00       25.00       25.00    
  31    25.07       25.07       25.07       25.07       25.06       25.06       25.06       25.06       25.06       25.06    
        25.06       25.05       25.05       25.05       25.05       25.05       25.05       25.04       25.04       25.04    
        25.04       25.04       25.03       25.03       25.03       25.03       25.03       25.02       25.02       25.02    
        25.02       25.02       25.01       25.01       25.01       25.01       25.01       25.00       25.00       25.00    
  32    25.06       25.06       25.06       25.06       25.06       25.06       25.05       25.05       25.05       25.05    
        25.05       25.05       25.05       25.05       25.04       25.04       25.04       25.04       25.04       25.04    
        25.03       25.03       25.03       25.03       25.03       25.02       25.02       25.02       25.02       25.02    
        25.02       25.01       25.01       25.01       25.01       25.01       25.01       25.00       25.00       25.00    
  33    25.05       25.05       25.05       25.05       25.05       25.05       25.05       25.05       25.05       25.04    
        25.04       25.04       25.04       25.04       25.04       25.04       25.04       25.03       25.03       25.03    
        25.03       25.03       25.03       25.02       25.02       25.02       25.02       25.02       25.02       25.02    
        25.01       25.01       25.01       25.01       25.01       25.01       25.00       25.00       25.00       25.00    
  34    25.04       25.04       25.04       25.04       25.04       25.04       25.04       25.04       25.04       25.04    
        25.04       25.04       25.03       25.03       25.03       25.03       25.03       25.03       25.03       25.03    
        25.02       25.02       25.02       25.02       25.02       25.02       25.02       25.02       25.01       25.01    
        25.01       25.01       25.01       25.01       25.01       25.01       25.00       25.00       25.00       25.00    
  35    25.04       25.04       25.04       25.03       25.03       25.03       25.03       25.03       25.03       25.03    
        25.03       25.03       25.03       25.03       25.03       25.03       25.02       25.02       25.02       25.02    
        25.02       25.02       25.02       25.02       25.02       25.02       25.01       25.01       25.01       25.01    
        25.01       25.01       25.01       25.01       25.01       25.00       25.00       25.00       25.00       25.00    
  36    25.03       25.03       25.03       25.03       25.03       25.03       25.03       25.03       25.03       25.03    
        25.02       25.02       25.02       25.02       25.02       25.02       25.02       25.02       25.02       25.02    
        25.02       25.02       25.01       25.01       25.01       25.01       25.01       25.01       25.01       25.01    
        25.01       25.01       25.01       25.01       25.00       25.00       25.00       25.00       25.00       25.00    
  37    25.02       25.02       25.02       25.02       25.02       25.02       25.02       25.02       25.02       25.02    
        25.02       25.02       25.02       25.02       25.02       25.02       25.01       25.01       25.01       25.01    
        25.01       25.01       25.01       25.01       25.01       25.01       25.01       25.01       25.01       25.01    
        25.01       25.01       25.00       25.00       25.00       25.00       25.00       25.00       25.00       25.00    
  38    25.01       25.01       25.01       25.01       25.01       25.01       25.01       25.01       25.01       25.01    
        25.01       25.01       25.01       25.01       25.01       25.01       25.01       25.01       25.01       25.01    
        25.01       25.01       25.01       25.01       25.01       25.01       25.01       25.01       25.00       25.00    
        25.00       25.00       25.00       25.00       25.00       25.00       25.00       25.00       25.00       25.00    
  39    25.01       25.01       25.01       25.01       25.01       25.01       25.01       25.01       25.01       25.01    
        25.01       25.01       25.01       25.01       25.01       25.01       25.00       25.00       25.00       25.00    
        25.00       25.00       25.00       25.00       25.00       25.00       25.00       25.00       25.00       25.00    
        25.00       25.00       25.00       25.00       25.00       25.00       25.00       25.00       25.00       25.00    
  40    25.00       25.00       25.00       25.00       25.00       25.00       25.00       25.00       25.00       25.00    
        25.00       25.00       25.00       25.00       25.00       25.00       25.00       25.00       25.00       25.00    
        25.00       25.00       25.00       25.00       25.00       25.00       25.00       25.00       25.00       25.00    
        25.00       25.00       25.00       25.00       25.00       25.00       25.00       25.00       25.00       25.00    
1
              HEAD IN LAYER  14 AT END OF TIME STEP   1 IN STRESS PERIOD    3
  ---------------------------------------------------------------------------

            1           2           3           4           5           6           7           8           9          10
           11          12          13          14          15          16          17          18          19          20
           21          22          23          24          25          26          27          28          29          30
           31          32          33          34          35          36          37          38          39          40
 ........................................................................................................................
   1    44.90       43.34       40.27       37.38       34.96       33.00       31.41       30.10       29.04       28.18    
        27.50       26.95       26.51       26.17       25.90       25.68       25.52       25.39       25.30       25.24    
        25.19       25.16       25.15       25.13       25.12       25.11       25.10       25.09       25.08       25.07    
        25.07       25.06       25.05       25.04       25.04       25.03       25.02       25.01       25.01       25.00    
   2    43.34       41.97       39.27       36.70       34.51       32.70       31.18       29.94       28.93       28.10    
        27.44       26.91       26.48       26.14       25.88       25.67       25.51       25.39       25.30       25.23    
        25.19       25.16       25.15       25.13       25.12       25.11       25.10       25.09       25.08       25.07    
        25.07       25.06       25.05       25.04       25.04       25.03       25.02       25.01       25.01       25.00    
   3    40.27       39.27       37.45       35.50       33.70       32.14       30.79       29.66       28.72       27.95    
        27.33       26.82       26.42       26.10       25.85       25.65       25.49       25.38       25.29       25.23    
        25.19       25.16       25.14       25.13       25.12       25.11       25.10       25.09       25.08       25.07    
        25.07       25.06       25.05       25.04       25.04       25.03       25.02       25.01       25.01       25.00    
   4    37.38       36.70       35.50       34.09       32.70       31.41       30.26       29.27       28.44       27.74    
        27.17       26.71       26.34       26.04       25.80       25.61       25.47       25.36       25.28       25.22    
        25.18       25.16       25.14       25.13       25.12       25.11       25.10       25.09       25.08       25.07    
        25.07       25.06       25.05       25.04       25.03       25.03       25.02       25.01       25.01       25.00    
   5    34.96       34.51       33.70       32.70       31.63       30.60       29.66       28.82       28.10       27.49    
        26.99       26.57       26.23       25.96       25.74       25.57       25.44       25.34       25.26       25.21    
        25.17       25.15       25.14       25.13       25.12       25.11       25.10       25.09       25.08       25.07    
        25.06       25.06       25.05       25.04       25.03       25.03       25.02       25.01       25.01       25.00    
   6    33.00       32.70       32.14       31.41       30.60       29.79       29.03       28.34       27.74       27.22    
        26.78       26.41       26.12       25.87       25.68       25.52       25.40       25.31       25.24       25.20    
        25.17       25.15       25.14       25.13       25.12       25.11       25.10       25.09       25.08       25.07    
        25.06       25.06       25.05       25.04       25.03       25.03       25.02       25.01       25.01       25.00    
   7    31.41       31.18       30.79       30.26       29.66       29.03       28.43       27.87       27.37       26.94    
        26.57       26.25       25.99       25.78       25.61       25.47       25.37       25.29       25.23       25.19    
        25.16       25.14       25.13       25.12       25.11       25.10       25.09       25.09       25.08       25.07    
        25.06       25.05       25.05       25.04       25.03       25.03       25.02       25.01       25.01       25.00    
   8    30.10       29.94       29.66       29.27       28.82       28.34       27.87       27.43       27.02       26.67    
        26.36       26.09       25.87       25.69       25.54       25.42       25.33       25.26       25.21       25.17    
        25.15       25.14       25.13       25.12       25.11       25.10       25.09       25.08       25.08       25.07    
        25.06       25.05       25.05       25.04       25.03       25.03       25.02       25.01       25.01       25.00    
   9    29.04       28.93       28.72       28.44       28.10       27.74       27.37       27.02       26.70       26.41    
        26.16       25.94       25.75       25.59       25.47       25.37       25.29       25.23       25.19       25.16    
        25.15       25.13       25.13       25.12       25.11       25.10       25.09       25.08       25.07       25.07    
        25.06       25.05       25.05       25.04       25.03       25.03       25.02       25.01       25.01       25.00    
  10    28.18       28.10       27.95       27.74       27.49       27.22       26.94       26.67       26.41       26.18    
        25.97       25.79       25.64       25.51       25.40       25.32       25.26       25.21       25.18       25.15    
        25.14       25.13       25.12       25.11       25.10       25.10       25.09       25.08       25.07       25.07    
        25.06       25.05       25.04       25.04       25.03       25.03       25.02       25.01       25.01       25.00    
  11    27.50       27.44       27.33       27.17       26.99       26.78       26.57       26.36       26.16       25.97    
        25.81       25.66       25.53       25.43       25.35       25.28       25.23       25.19       25.16       25.15    
        25.14       25.13       25.12       25.11       25.10       25.09       25.09       25.08       25.07       25.06    
        25.06       25.05       25.04       25.04       25.03       25.02       25.02       25.01       25.01       25.00    
  12    26.95       26.91       26.82       26.71       26.57       26.41       26.25       26.09       25.94       25.79    
        25.66       25.54       25.44       25.36       25.29       25.24       25.20       25.17       25.15       25.14    
        25.13       25.12       25.11       25.11       25.10       25.09       25.08       25.08       25.07       25.06    
        25.05       25.05       25.04       25.04       25.03       25.02       25.02       25.01       25.01       25.00    
  13    26.51       26.48       26.42       26.34       26.23       26.12       25.99       25.87       25.75       25.64    
        25.53       25.44       25.37       25.30       25.25       25.21       25.18       25.16       25.14       25.13    
        25.12       25.12       25.11       25.10       25.09       25.09       25.08       25.07       25.07       25.06    
        25.05       25.05       25.04       25.03       25.03       25.02       25.02       25.01       25.01       25.00    
  14    26.17       26.14       26.10       26.04       25.96       25.87       25.78       25.69       25.59       25.51    
        25.43       25.36       25.30       25.25       25.21       25.18       25.16       25.15       25.14       25.13    
        25.12       25.11       25.10       25.10       25.09       25.08       25.08       25.07       25.06       25.06    
        25.05       25.05       25.04       25.03       25.03       25.02       25.02       25.01       25.01       25.00    
  15    25.90       25.88       25.85       25.80       25.74       25.68       25.61       25.54       25.47       25.40    
        25.35       25.29       25.25       25.21       25.19       25.16       25.15       25.14       25.13       25.12    
        25.11       25.11       25.10       25.09       25.09       25.08       25.07       25.07       25.06       25.06    
        25.05       25.04       25.04       25.03       25.03       25.02       25.02       25.01       25.01       25.00    
  16    25.68       25.67       25.65       25.61       25.57       25.52       25.47       25.42       25.37       25.32    
        25.28       25.24       25.21       25.18       25.16       25.15       25.14       25.13       25.12       25.12    
        25.11       25.10       25.10       25.09       25.08       25.08       25.07       25.06       25.06       25.05    
        25.05       25.04       25.04       25.03       25.03       25.02       25.02       25.01       25.01       25.00    
  17    25.52       25.51       25.49       25.47       25.44       25.40       25.37       25.33       25.29       25.26    
        25.23       25.20       25.18       25.16       25.15       25.14       25.13       25.12       25.12       25.11    
        25.10       25.10       25.09       25.09       25.08       25.07       25.07       25.06       25.06       25.05    
        25.05       25.04       25.04       25.03       25.02       25.02       25.01       25.01       25.00       25.00    
  18    25.39       25.39       25.38       25.36       25.34       25.31       25.29       25.26       25.23       25.21    
        25.19       25.17       25.16       25.15       25.14       25.13       25.12       25.12       25.11       25.11    
        25.10       25.09       25.09       25.08       25.08       25.07       25.06       25.06       25.05       25.05    
        25.04       25.04       25.03       25.03       25.02       25.02       25.01       25.01       25.00       25.00    
  19    25.30       25.30       25.29       25.28       25.26       25.24       25.23       25.21       25.19       25.18    
        25.16       25.15       25.14       25.14       25.13       25.12       25.12       25.11       25.11       25.10    
        25.09       25.09       25.08       25.08       25.07       25.07       25.06       25.06       25.05       25.05    
        25.04       25.04       25.03       25.03       25.02       25.02       25.01       25.01       25.00       25.00    
  20    25.24       25.23       25.23       25.22       25.21       25.20       25.19       25.17       25.16       25.15    
        25.15       25.14       25.13       25.13       25.12       25.12       25.11       25.11       25.10       25.09    
        25.09       25.08       25.08       25.07       25.07       25.06       25.06       25.05       25.05       25.04    
        25.04       25.04       25.03       25.03       25.02       25.02       25.01       25.01       25.00       25.00    
  21    25.19       25.19       25.19       25.18       25.17       25.17       25.16       25.15       25.15       25.14    
        25.14       25.13       25.12       25.12       25.11       25.11       25.10       25.10       25.09       25.09    
        25.08       25.08       25.07       25.07       25.06       25.06       25.06       25.05       25.05       25.04    
        25.04       25.03       25.03       25.02       25.02       25.02       25.01       25.01       25.00       25.00    
  22    25.16       25.16       25.16       25.16       25.15       25.15       25.14       25.14       25.13       25.13    
        25.13       25.12       25.12       25.11       25.11       25.10       25.10       25.09       25.09       25.08    
        25.08       25.07       25.07       25.07       25.06       25.06       25.05       25.05       25.04       25.04    
        25.04       25.03       25.03       25.02       25.02       25.02       25.01       25.01       25.00       25.00    
  23    25.15       25.15       25.14       25.14       25.14       25.14       25.13       25.13       25.13       25.12    
        25.12       25.11       25.11       25.10       25.10       25.10       25.09       25.09       25.08       25.08    
        25.07       25.07       25.07       25.06       25.06       25.05       25.05       25.05       25.04       25.04    
        25.03       25.03       25.03       25.02       25.02       25.01       25.01       25.01       25.00       25.00    
  24    25.13       25.13       25.13       25.13       25.13       25.13       25.12       25.12       25.12       25.11    
        25.11       25.11       25.10       25.10       25.09       25.09       25.09       25.08       25.08       25.07    
        25.07       25.07       25.06       25.06       25.05       25.05       25.05       25.04       25.04       25.04    
        25.03       25.03       25.02       25.02       25.02       25.01       25.01       25.01       25.00       25.00    
  25    25.12       25.12       25.12       25.12       25.12       25.12       25.11       25.11       25.11       25.10    
        25.10       25.10       25.09       25.09       25.09       25.08       25.08       25.08       25.07       25.07    
        25.06       25.06       25.06       25.05       25.05       25.05       25.04       25.04       25.04       25.03    
        25.03       25.03       25.02       25.02       25.02       25.01       25.01       25.01       25.00       25.00    
  26    25.11       25.11       25.11       25.11       25.11       25.11       25.10       25.10       25.10       25.10    
        25.09       25.09       25.09       25.08       25.08       25.08       25.07       25.07       25.07       25.06    
        25.06       25.06       25.05       25.05       25.05       25.04       25.04       25.04       25.03       25.03    
        25.03       25.02       25.02       25.02       25.02       25.01       25.01       25.01       25.00       25.00    
  27    25.10       25.10       25.10       25.10       25.10       25.10       25.09       25.09       25.09       25.09    
        25.09       25.08       25.08       25.08       25.07       25.07       25.07       25.06       25.06       25.06    
        25.06       25.05       25.05       25.05       25.04       25.04       25.04       25.03       25.03       25.03    
        25.03       25.02       25.02       25.02       25.01       25.01       25.01       25.01       25.00       25.00    
  28    25.09       25.09       25.09       25.09       25.09       25.09       25.09       25.08       25.08       25.08    
        25.08       25.08       25.07       25.07       25.07       25.06       25.06       25.06       25.06       25.05    
        25.05       25.05       25.05       25.04       25.04       25.04       25.03       25.03       25.03       25.03    
        25.02       25.02       25.02       25.02       25.01       25.01       25.01       25.01       25.00       25.00    
  29    25.08       25.08       25.08       25.08       25.08       25.08       25.08       25.08       25.07       25.07    
        25.07       25.07       25.07       25.06       25.06       25.06       25.06       25.05       25.05       25.05    
        25.05       25.04       25.04       25.04       25.04       25.03       25.03       25.03       25.03       25.02    
        25.02       25.02       25.02       25.01       25.01       25.01       25.01       25.00       25.00       25.00    
  30    25.07       25.07       25.07       25.07       25.07       25.07       25.07       25.07       25.07       25.07    
        25.06       25.06       25.06       25.06       25.06       25.05       25.05       25.05       25.05       25.04    
        25.04       25.04       25.04       25.04       25.03       25.03       25.03       25.03       25.02       25.02    
        25.02       25.02       25.02       25.01       25.01       25.01       25.01       25.00       25.00       25.00    
  31    25.07       25.07       25.07       25.07       25.06       25.06       25.06       25.06       25.06       25.06    
        25.06       25.05       25.05       25.05       25.05       25.05       25.05       25.04       25.04       25.04    
        25.04       25.04       25.03       25.03       25.03       25.03       25.03       25.02       25.02       25.02    
        25.02       25.02       25.01       25.01       25.01       25.01       25.01       25.00       25.00       25.00    
  32    25.06       25.06       25.06       25.06       25.06       25.06       25.05       25.05       25.05       25.05    
        25.05       25.05       25.05       25.05       25.04       25.04       25.04       25.04       25.04       25.04    
        25.03       25.03       25.03       25.03       25.03       25.02       25.02       25.02       25.02       25.02    
        25.02       25.01       25.01       25.01       25.01       25.01       25.01       25.00       25.00       25.00    
  33    25.05       25.05       25.05       25.05       25.05       25.05       25.05       25.05       25.05       25.04    
        25.04       25.04       25.04       25.04       25.04       25.04       25.04       25.03       25.03       25.03    
        25.03       25.03       25.03       25.02       25.02       25.02       25.02       25.02       25.02       25.02    
        25.01       25.01       25.01       25.01       25.01       25.01       25.00       25.00       25.00       25.00    
  34    25.04       25.04       25.04       25.04       25.04       25.04       25.04       25.04       25.04       25.04    
        25.04       25.04       25.03       25.03       25.03       25.03       25.03       25.03       25.03       25.03    
        25.02       25.02       25.02       25.02       25.02       25.02       25.02       25.02       25.01       25.01    
        25.01       25.01       25.01       25.01       25.01       25.01       25.00       25.00       25.00       25.00    
  35    25.04       25.04       25.04       25.03       25.03       25.03       25.03       25.03       25.03       25.03    
        25.03       25.03       25.03       25.03       25.03       25.03       25.02       25.02       25.02       25.02    
        25.02       25.02       25.02       25.02       25.02       25.02       25.01       25.01       25.01       25.01    
        25.01       25.01       25.01       25.01       25.01       25.00       25.00       25.00       25.00       25.00    
  36    25.03       25.03       25.03       25.03       25.03       25.03       25.03       25.03       25.03       25.03    
        25.02       25.02       25.02       25.02       25.02       25.02       25.02       25.02       25.02       25.02    
        25.02       25.02       25.01       25.01       25.01       25.01       25.01       25.01       25.01       25.01    
        25.01       25.01       25.01       25.01       25.00       25.00       25.00       25.00       25.00       25.00    
  37    25.02       25.02       25.02       25.02       25.02       25.02       25.02       25.02       25.02       25.02    
        25.02       25.02       25.02       25.02       25.02       25.02       25.01       25.01       25.01       25.01    
        25.01       25.01       25.01       25.01       25.01       25.01       25.01       25.01       25.01       25.01    
        25.01       25.01       25.00       25.00       25.00       25.00       25.00       25.00       25.00       25.00    
  38    25.01       25.01       25.01       25.01       25.01       25.01       25.01       25.01       25.01       25.01    
        25.01       25.01       25.01       25.01       25.01       25.01       25.01       25.01       25.01       25.01    
        25.01       25.01       25.01       25.01       25.01       25.01       25.01       25.01       25.00       25.00    
        25.00       25.00       25.00       25.00       25.00       25.00       25.00       25.00       25.00       25.00    
  39    25.01       25.01       25.01       25.01       25.01       25.01       25.01       25.01       25.01       25.01    
        25.01       25.01       25.01       25.01       25.01       25.01       25.00       25.00       25.00       25.00    
        25.00       25.00       25.00       25.00       25.00       25.00       25.00       25.00       25.00       25.00    
        25.00       25.00       25.00       25.00       25.00       25.00       25.00       25.00       25.00       25.00    
  40    25.00       25.00       25.00       25.00       25.00       25.00       25.00       25.00       25.00       25.00    
        25.00       25.00       25.00       25.00       25.00       25.00       25.00       25.00       25.00       25.00    
        25.00       25.00       25.00       25.00       25.00       25.00       25.00       25.00       25.00       25.00    
        25.00       25.00       25.00       25.00       25.00       25.00       25.00       25.00       25.00       25.00    



          TIME SUMMARY AT END OF TIME STEP   1 IN STRESS PERIOD    3
                    SECONDS     MINUTES      HOURS       DAYS        YEARS
                    -----------------------------------------------------------
   TIME STEP LENGTH 9.76828E+06 1.62805E+05  2713.4      113.06     0.30954    
 STRESS PERIOD TIME 9.76828E+06 1.62805E+05  2713.4      113.06     0.30954    
         TOTAL TIME 7.09395E+07 1.18232E+06  19705.      821.06      2.2479    
1
 
 SOLVING FOR HEAD 

 CELL CONVERSIONS FOR ITER.=  2  LAYER=  6  STEP=  2  PERIOD=   3   (ROW,COL)
    WET(  2,  3)   WET(  3,  2)   

 CELL CONVERSIONS FOR ITER.=  2  LAYER=  7  STEP=  2  PERIOD=   3   (ROW,COL)
    WET(  1,  5)   WET(  5,  1)   

 CELL CONVERSIONS FOR ITER.=  2  LAYER=  8  STEP=  2  PERIOD=   3   (ROW,COL)
    WET(  1,  8)   WET(  2,  8)   WET(  4,  7)   WET(  7,  4)   WET(  8,  1)   
    WET(  8,  2)   
     7 CALLS TO PCG ROUTINE FOR TIME STEP   2 IN STRESS PERIOD    3
    59 TOTAL ITERATIONS

 MAXIMUM HEAD CHANGE FOR EACH ITERATION (1 INDICATES THE FIRST INNER ITERATION):

    HEAD CHANGE    HEAD CHANGE    HEAD CHANGE    HEAD CHANGE    HEAD CHANGE 
   LAYER,ROW,COL  LAYER,ROW,COL  LAYER,ROW,COL  LAYER,ROW,COL  LAYER,ROW,COL
 ---------------------------------------------------------------------------
  1  0.9165      0 -0.1777      0 -0.5336E-01  0  0.2070E-01  0  0.1059E-01
   (  9,  8,  1)  ( 13,  8,  1)  ( 14,  7,  2)  ( 14,  2, 30)  ( 14,  2, 35)
  0 -0.7229E-02  0 -0.6232E-02  0 -0.4708E-02  0  0.1280E-02  0 -0.6301E-03
   ( 14,  1,  1)  ( 14,  2,  2)  ( 13,  2,  2)  ( 14, 30,  1)  ( 14, 28, 28)
  0  0.4664E-03  0  0.2966E-03  0  0.2805E-03  0  0.1463E-03  0  0.1203E-03
   ( 11,  2,  2)  ( 10,  1,  3)  ( 11,  3,  1)  (  8,  1,  1)  ( 12,  2,  2)
  0  0.5288E-04  1 -0.4751      0  0.3455      0  0.6497E-01  0  0.1922E-01
   ( 10,  2,  2)  (  6,  2,  1)  ( 14,  2,  2)  ( 14,  1,  3)  (  8,  2,  2)
  0  0.8888E-02  0  0.6101E-02  0  0.1795E-02  0  0.2293E-02  0  0.4915E-03
   (  8,  2,  2)  (  6,  2,  1)  ( 14,  1,  1)  ( 14,  1,  1)  ( 12,  5,  5)
  0 -0.8781E-03  0  0.2117E-03  0  0.3268E-03  0  0.1276E-03  0 -0.1136E-03
   ( 14,  1,  1)  ( 12,  5,  7)  (  9,  1,  1)  (  8,  1,  1)  ( 14,  1,  1)
  0 -0.5119E-04  1 -0.5764E-01  0 -0.2875E-01  0 -0.1241E-01  0  0.2136E-02
   ( 14,  1,  1)  (  6,  2,  2)  ( 14,  1,  1)  (  6,  2,  2)  ( 14,  3,  2)
  0  0.3655E-02  0  0.3211E-02  0 -0.5160E-03  0 -0.1156E-02  0 -0.3581E-03
   (  8,  2,  2)  ( 14,  1,  1)  ( 14,  2,  2)  (  8,  1,  1)  (  7,  1,  1)
  0 -0.2777E-03  0  0.1050E-03  0  0.7687E-04  1 -0.8170E-02  0  0.3862E-02
   ( 14,  1,  4)  ( 14,  1,  1)  ( 14,  2,  2)  (  6,  2,  2)  ( 13,  2,  2)
  0 -0.8317E-03  0  0.6911E-03  0  0.2573E-03  0  0.4471E-03  0 -0.8670E-04
   (  5,  2,  2)  ( 14,  3,  1)  (  8,  2,  2)  (  8,  2,  2)  ( 14, 28,  2)
  1 -0.1421E-02  0 -0.4146E-03  0  0.4400E-03  0 -0.9690E-04  1 -0.1205E-03
   (  6,  2,  2)  (  6,  2,  2)  ( 13,  2,  2)  ( 14, 31, 31)  (  6,  2,  2)
  0 -0.1408E-03  0  0.1018E-03  0  0.8036E-04  1 -0.3925E-04
   (  6,  2,  2)  (  6,  2,  3)  (  9,  2,  2)  (  6,  2,  2)

 MAXIMUM RESIDUAL FOR EACH ITERATION (1 INDICATES THE FIRST INNER ITERATION):

    RESIDUAL       RESIDUAL       RESIDUAL       RESIDUAL       RESIDUAL    
   LAYER,ROW,COL  LAYER,ROW,COL  LAYER,ROW,COL  LAYER,ROW,COL  LAYER,ROW,COL
 ---------------------------------------------------------------------------
  1   13.02      0   2.950      0   1.489      0  -1.660      0 -0.5910    
   ( 11,  1,  8)  ( 14,  3,  8)  ( 14,  1,  7)  ( 12,  2,  7)  ( 13,  2,  7)
  0  0.3853      0  0.2361      0 -0.1057      0 -0.9223E-01  0  0.4148E-01
   ( 11,  2,  2)  ( 12,  7,  2)  ( 13,  2,  2)  ( 13,  2,  2)  ( 14,  9,  1)
  0  0.3083E-01  0  0.1867E-01  0  0.1046E-01  0 -0.1111E-01  0 -0.4543E-02
   (  6,  2,  2)  (  6,  2,  2)  (  9,  5,  5)  (  8,  2,  2)  (  8,  2,  2)
  0  0.4055E-02  1  -56.36      0   5.138      0  -3.175      0  -1.619    
   ( 14,  2,  2)  (  8,  4,  7)  ( 13,  2,  2)  (  8,  2,  2)  (  7,  2,  2)
  0  -1.046      0 -0.5876      0 -0.4679      0 -0.3030      0 -0.2219    
   (  7,  2,  2)  (  7,  2,  2)  (  7,  2,  2)  (  7,  2,  2)  (  7,  2,  2)
  0 -0.1423      0 -0.9987E-01  0 -0.6251E-01  0 -0.4207E-01  0 -0.2132E-01
   (  7,  2,  2)  (  7,  2,  2)  (  7,  2,  2)  (  7,  2,  2)  (  7,  2,  2)
  0 -0.1266E-01  1   16.08      0   5.508      0  -2.077      0  -1.604    
   (  7,  2,  2)  (  6,  2,  2)  (  6,  2,  2)  (  8,  2,  2)  (  8,  2,  2)
  0 -0.8447      0  0.2570      0  0.1678      0  0.1117      0  0.8474E-01
   (  8,  2,  2)  (  7,  2,  3)  (  7,  2,  3)  (  7,  2,  3)  (  7,  2,  3)
  0  0.4768E-01  0  0.3622E-01  0  0.1786E-01  1   2.472      0  0.7976    
   (  9,  2,  2)  (  9,  2,  2)  (  9,  2,  2)  (  6,  2,  2)  (  6,  2,  2)
  0  0.4944      0 -0.3044      0 -0.2019      0 -0.6858E-01  0 -0.3929E-01
   (  6,  2,  2)  (  8,  2,  2)  (  8,  2,  2)  (  6,  3,  2)  (  6,  3,  2)
  1  0.4785      0  0.3366      0  0.1381      0  0.8535E-01  1  0.1602    
   (  6,  2,  2)  (  6,  2,  2)  (  6,  2,  2)  (  6,  2,  2)  (  6,  2,  2)
  0  0.1123      0  0.5017E-01  0  0.1008E-01  1  0.3077E-01
   (  6,  2,  2)  (  6,  2,  2)  (  6,  2,  2)  (  6,  2,  2)



 OUTPUT CONTROL FOR STRESS PERIOD    3   TIME STEP   2
    SAVE BUDGET
    PRINT HEAD FOR ALL LAYERS
 UBDSV1 SAVING "         STORAGE" ON UNIT  32 AT TIME STEP  2, STRESS PERIOD   3
 UBDSV2 SAVING "   CONSTANT HEAD" ON UNIT  32 AT TIME STEP  2, STRESS PERIOD   3
 UBDSV1 SAVING "FLOW RIGHT FACE " ON UNIT  32 AT TIME STEP  2, STRESS PERIOD   3
 UBDSV1 SAVING "FLOW FRONT FACE " ON UNIT  32 AT TIME STEP  2, STRESS PERIOD   3
 UBDSV1 SAVING "FLOW LOWER FACE " ON UNIT  32 AT TIME STEP  2, STRESS PERIOD   3
 UBDSV3 SAVING "        RECHARGE" ON UNIT  32 AT TIME STEP  2, STRESS PERIOD   3
1
              HEAD IN LAYER   1 AT END OF TIME STEP   2 IN STRESS PERIOD    3
  ---------------------------------------------------------------------------

            1           2           3           4           5           6           7           8           9          10
           11          12          13          14          15          16          17          18          19          20
           21          22          23          24          25          26          27          28          29          30
           31          32          33          34          35          36          37          38          39          40
 ........................................................................................................................
   1   -99.90      -99.90      -99.90      -99.90      -99.90      -99.90      -99.90      -99.90      -99.90      -99.90    
       -99.90      -99.90      -99.90      -99.90      -99.90      -99.90      -99.90      -99.90      -99.90      -99.90    
       -99.90      -99.90      -99.90      -99.90      -99.90      -99.90      -99.90      -99.90      -99.90      -99.90    
       -99.90      -99.90      -99.90      -99.90      -99.90      -99.90      -99.90      -99.90      -99.90      -99.90    
   2   -99.90      -99.90      -99.90      -99.90      -99.90      -99.90      -99.90      -99.90      -99.90      -99.90    
       -99.90      -99.90      -99.90      -99.90      -99.90      -99.90      -99.90      -99.90      -99.90      -99.90    
       -99.90      -99.90      -99.90      -99.90      -99.90      -99.90      -99.90      -99.90      -99.90      -99.90    
       -99.90      -99.90      -99.90      -99.90      -99.90      -99.90      -99.90      -99.90      -99.90      -99.90    
   3   -99.90      -99.90      -99.90      -99.90      -99.90      -99.90      -99.90      -99.90      -99.90      -99.90    
       -99.90      -99.90      -99.90      -99.90      -99.90      -99.90      -99.90      -99.90      -99.90      -99.90    
       -99.90      -99.90      -99.90      -99.90      -99.90      -99.90      -99.90      -99.90      -99.90      -99.90    
       -99.90      -99.90      -99.90      -99.90      -99.90      -99.90      -99.90      -99.90      -99.90      -99.90    
   4   -99.90      -99.90      -99.90      -99.90      -99.90      -99.90      -99.90      -99.90      -99.90      -99.90    
       -99.90      -99.90      -99.90      -99.90      -99.90      -99.90      -99.90      -99.90      -99.90      -99.90    
       -99.90      -99.90      -99.90      -99.90      -99.90      -99.90      -99.90      -99.90      -99.90      -99.90    
       -99.90      -99.90      -99.90      -99.90      -99.90      -99.90      -99.90      -99.90      -99.90      -99.90    
   5   -99.90      -99.90      -99.90      -99.90      -99.90      -99.90      -99.90      -99.90      -99.90      -99.90    
       -99.90      -99.90      -99.90      -99.90      -99.90      -99.90      -99.90      -99.90      -99.90      -99.90    
       -99.90      -99.90      -99.90      -99.90      -99.90      -99.90      -99.90      -99.90      -99.90      -99.90    
       -99.90      -99.90      -99.90      -99.90      -99.90      -99.90      -99.90      -99.90      -99.90      -99.90    
   6   -99.90      -99.90      -99.90      -99.90      -99.90      -99.90      -99.90      -99.90      -99.90      -99.90    
       -99.90      -99.90      -99.90      -99.90      -99.90      -99.90      -99.90      -99.90      -99.90      -99.90    
       -99.90      -99.90      -99.90      -99.90      -99.90      -99.90      -99.90      -99.90      -99.90      -99.90    
       -99.90      -99.90      -99.90      -99.90      -99.90      -99.90      -99.90      -99.90      -99.90      -99.90    
   7   -99.90      -99.90      -99.90      -99.90      -99.90      -99.90      -99.90      -99.90      -99.90      -99.90    
       -99.90      -99.90      -99.90      -99.90      -99.90      -99.90      -99.90      -99.90      -99.90      -99.90    
       -99.90      -99.90      -99.90      -99.90      -99.90      -99.90      -99.90      -99.90      -99.90      -99.90    
       -99.90      -99.90      -99.90      -99.90      -99.90      -99.90      -99.90      -99.90      -99.90      -99.90    
   8   -99.90      -99.90      -99.90      -99.90      -99.90      -99.90      -99.90      -99.90      -99.90      -99.90    
       -99.90      -99.90      -99.90      -99.90      -99.90      -99.90      -99.90      -99.90      -99.90      -99.90    
       -99.90      -99.90      -99.90      -99.90      -99.90      -99.90      -99.90      -99.90      -99.90      -99.90    
       -99.90      -99.90      -99.90      -99.90      -99.90      -99.90      -99.90      -99.90      -99.90      -99.90    
   9   -99.90      -99.90      -99.90      -99.90      -99.90      -99.90      -99.90      -99.90      -99.90      -99.90    
       -99.90      -99.90      -99.90      -99.90      -99.90      -99.90      -99.90      -99.90      -99.90      -99.90    
       -99.90      -99.90      -99.90      -99.90      -99.90      -99.90      -99.90      -99.90      -99.90      -99.90    
       -99.90      -99.90      -99.90      -99.90      -99.90      -99.90      -99.90      -99.90      -99.90      -99.90    
  10   -99.90      -99.90      -99.90      -99.90      -99.90      -99.90      -99.90      -99.90      -99.90      -99.90    
       -99.90      -99.90      -99.90      -99.90      -99.90      -99.90      -99.90      -99.90      -99.90      -99.90    
       -99.90      -99.90      -99.90      -99.90      -99.90      -99.90      -99.90      -99.90      -99.90      -99.90    
       -99.90      -99.90      -99.90      -99.90      -99.90      -99.90      -99.90      -99.90      -99.90      -99.90    
  11   -99.90      -99.90      -99.90      -99.90      -99.90      -99.90      -99.90      -99.90      -99.90      -99.90    
       -99.90      -99.90      -99.90      -99.90      -99.90      -99.90      -99.90      -99.90      -99.90      -99.90    
       -99.90      -99.90      -99.90      -99.90      -99.90      -99.90      -99.90      -99.90      -99.90      -99.90    
       -99.90      -99.90      -99.90      -99.90      -99.90      -99.90      -99.90      -99.90      -99.90      -99.90    
  12   -99.90      -99.90      -99.90      -99.90      -99.90      -99.90      -99.90      -99.90      -99.90      -99.90    
       -99.90      -99.90      -99.90      -99.90      -99.90      -99.90      -99.90      -99.90      -99.90      -99.90    
       -99.90      -99.90      -99.90      -99.90      -99.90      -99.90      -99.90      -99.90      -99.90      -99.90    
       -99.90      -99.90      -99.90      -99.90      -99.90      -99.90      -99.90      -99.90      -99.90      -99.90    
  13   -99.90      -99.90      -99.90      -99.90      -99.90      -99.90      -99.90      -99.90      -99.90      -99.90    
       -99.90      -99.90      -99.90      -99.90      -99.90      -99.90      -99.90      -99.90      -99.90      -99.90    
       -99.90      -99.90      -99.90      -99.90      -99.90      -99.90      -99.90      -99.90      -99.90      -99.90    
       -99.90      -99.90      -99.90      -99.90      -99.90      -99.90      -99.90      -99.90      -99.90      -99.90    
  14   -99.90      -99.90      -99.90      -99.90      -99.90      -99.90      -99.90      -99.90      -99.90      -99.90    
       -99.90      -99.90      -99.90      -99.90      -99.90      -99.90      -99.90      -99.90      -99.90      -99.90    
       -99.90      -99.90      -99.90      -99.90      -99.90      -99.90      -99.90      -99.90      -99.90      -99.90    
       -99.90      -99.90      -99.90      -99.90      -99.90      -99.90      -99.90      -99.90      -99.90      -99.90    
  15   -99.90      -99.90      -99.90      -99.90      -99.90      -99.90      -99.90      -99.90      -99.90      -99.90    
       -99.90      -99.90      -99.90      -99.90      -99.90      -99.90      -99.90      -99.90      -99.90      -99.90    
       -99.90      -99.90      -99.90      -99.90      -99.90      -99.90      -99.90      -99.90      -99.90      -99.90    
       -99.90      -99.90      -99.90      -99.90      -99.90      -99.90      -99.90      -99.90      -99.90      -99.90    
  16   -99.90      -99.90      -99.90      -99.90      -99.90      -99.90      -99.90      -99.90      -99.90      -99.90    
       -99.90      -99.90      -99.90      -99.90      -99.90      -99.90      -99.90      -99.90      -99.90      -99.90    
       -99.90      -99.90      -99.90      -99.90      -99.90      -99.90      -99.90      -99.90      -99.90      -99.90    
       -99.90      -99.90      -99.90      -99.90      -99.90      -99.90      -99.90      -99.90      -99.90      -99.90    
  17   -99.90      -99.90      -99.90      -99.90      -99.90      -99.90      -99.90      -99.90      -99.90      -99.90    
       -99.90      -99.90      -99.90      -99.90      -99.90      -99.90      -99.90      -99.90      -99.90      -99.90    
       -99.90      -99.90      -99.90      -99.90      -99.90      -99.90      -99.90      -99.90      -99.90      -99.90    
       -99.90      -99.90      -99.90      -99.90      -99.90      -99.90      -99.90      -99.90      -99.90      -99.90    
  18   -99.90      -99.90      -99.90      -99.90      -99.90      -99.90      -99.90      -99.90      -99.90      -99.90    
       -99.90      -99.90      -99.90      -99.90      -99.90      -99.90      -99.90      -99.90      -99.90      -99.90    
       -99.90      -99.90      -99.90      -99.90      -99.90      -99.90      -99.90      -99.90      -99.90      -99.90    
       -99.90      -99.90      -99.90      -99.90      -99.90      -99.90      -99.90      -99.90      -99.90      -99.90    
  19   -99.90      -99.90      -99.90      -99.90      -99.90      -99.90      -99.90      -99.90      -99.90      -99.90    
       -99.90      -99.90      -99.90      -99.90      -99.90      -99.90      -99.90      -99.90      -99.90      -99.90    
       -99.90      -99.90      -99.90      -99.90      -99.90      -99.90      -99.90      -99.90      -99.90      -99.90    
       -99.90      -99.90      -99.90      -99.90      -99.90      -99.90      -99.90      -99.90      -99.90      -99.90    
  20   -99.90      -99.90      -99.90      -99.90      -99.90      -99.90      -99.90      -99.90      -99.90      -99.90    
       -99.90      -99.90      -99.90      -99.90      -99.90      -99.90      -99.90      -99.90      -99.90      -99.90    
       -99.90      -99.90      -99.90      -99.90      -99.90      -99.90      -99.90      -99.90      -99.90      -99.90    
       -99.90      -99.90      -99.90      -99.90      -99.90      -99.90      -99.90      -99.90      -99.90      -99.90    
  21   -99.90      -99.90      -99.90      -99.90      -99.90      -99.90      -99.90      -99.90      -99.90      -99.90    
       -99.90      -99.90      -99.90      -99.90      -99.90      -99.90      -99.90      -99.90      -99.90      -99.90    
       -99.90      -99.90      -99.90      -99.90      -99.90      -99.90      -99.90      -99.90      -99.90      -99.90    
       -99.90      -99.90      -99.90      -99.90      -99.90      -99.90      -99.90      -99.90      -99.90      -99.90    
  22   -99.90      -99.90      -99.90      -99.90      -99.90      -99.90      -99.90      -99.90      -99.90      -99.90    
       -99.90      -99.90      -99.90      -99.90      -99.90      -99.90      -99.90      -99.90      -99.90      -99.90    
       -99.90      -99.90      -99.90      -99.90      -99.90      -99.90      -99.90      -99.90      -99.90      -99.90    
       -99.90      -99.90      -99.90      -99.90      -99.90      -99.90      -99.90      -99.90      -99.90      -99.90    
  23   -99.90      -99.90      -99.90      -99.90      -99.90      -99.90      -99.90      -99.90      -99.90      -99.90    
       -99.90      -99.90      -99.90      -99.90      -99.90      -99.90      -99.90      -99.90      -99.90      -99.90    
       -99.90      -99.90      -99.90      -99.90      -99.90      -99.90      -99.90      -99.90      -99.90      -99.90    
       -99.90      -99.90      -99.90      -99.90      -99.90      -99.90      -99.90      -99.90      -99.90      -99.90    
  24   -99.90      -99.90      -99.90      -99.90      -99.90      -99.90      -99.90      -99.90      -99.90      -99.90    
       -99.90      -99.90      -99.90      -99.90      -99.90      -99.90      -99.90      -99.90      -99.90      -99.90    
       -99.90      -99.90      -99.90      -99.90      -99.90      -99.90      -99.90      -99.90      -99.90      -99.90    
       -99.90      -99.90      -99.90      -99.90      -99.90      -99.90      -99.90      -99.90      -99.90      -99.90    
  25   -99.90      -99.90      -99.90      -99.90      -99.90      -99.90      -99.90      -99.90      -99.90      -99.90    
       -99.90      -99.90      -99.90      -99.90      -99.90      -99.90      -99.90      -99.90      -99.90      -99.90    
       -99.90      -99.90      -99.90      -99.90      -99.90      -99.90      -99.90      -99.90      -99.90      -99.90    
       -99.90      -99.90      -99.90      -99.90      -99.90      -99.90      -99.90      -99.90      -99.90      -99.90    
  26   -99.90      -99.90      -99.90      -99.90      -99.90      -99.90      -99.90      -99.90      -99.90      -99.90    
       -99.90      -99.90      -99.90      -99.90      -99.90      -99.90      -99.90      -99.90      -99.90      -99.90    
       -99.90      -99.90      -99.90      -99.90      -99.90      -99.90      -99.90      -99.90      -99.90      -99.90    
       -99.90      -99.90      -99.90      -99.90      -99.90      -99.90      -99.90      -99.90      -99.90      -99.90    
  27   -99.90      -99.90      -99.90      -99.90      -99.90      -99.90      -99.90      -99.90      -99.90      -99.90    
       -99.90      -99.90      -99.90      -99.90      -99.90      -99.90      -99.90      -99.90      -99.90      -99.90    
       -99.90      -99.90      -99.90      -99.90      -99.90      -99.90      -99.90      -99.90      -99.90      -99.90    
       -99.90      -99.90      -99.90      -99.90      -99.90      -99.90      -99.90      -99.90      -99.90      -99.90    
  28   -99.90      -99.90      -99.90      -99.90      -99.90      -99.90      -99.90      -99.90      -99.90      -99.90    
       -99.90      -99.90      -99.90      -99.90      -99.90      -99.90      -99.90      -99.90      -99.90      -99.90    
       -99.90      -99.90      -99.90      -99.90      -99.90      -99.90      -99.90      -99.90      -99.90      -99.90    
       -99.90      -99.90      -99.90      -99.90      -99.90      -99.90      -99.90      -99.90      -99.90      -99.90    
  29   -99.90      -99.90      -99.90      -99.90      -99.90      -99.90      -99.90      -99.90      -99.90      -99.90    
       -99.90      -99.90      -99.90      -99.90      -99.90      -99.90      -99.90      -99.90      -99.90      -99.90    
       -99.90      -99.90      -99.90      -99.90      -99.90      -99.90      -99.90      -99.90      -99.90      -99.90    
       -99.90      -99.90      -99.90      -99.90      -99.90      -99.90      -99.90      -99.90      -99.90      -99.90    
  30   -99.90      -99.90      -99.90      -99.90      -99.90      -99.90      -99.90      -99.90      -99.90      -99.90    
       -99.90      -99.90      -99.90      -99.90      -99.90      -99.90      -99.90      -99.90      -99.90      -99.90    
       -99.90      -99.90      -99.90      -99.90      -99.90      -99.90      -99.90      -99.90      -99.90      -99.90    
       -99.90      -99.90      -99.90      -99.90      -99.90      -99.90      -99.90      -99.90      -99.90      -99.90    
  31   -99.90      -99.90      -99.90      -99.90      -99.90      -99.90      -99.90      -99.90      -99.90      -99.90    
       -99.90      -99.90      -99.90      -99.90      -99.90      -99.90      -99.90      -99.90      -99.90      -99.90    
       -99.90      -99.90      -99.90      -99.90      -99.90      -99.90      -99.90      -99.90      -99.90      -99.90    
       -99.90      -99.90      -99.90      -99.90      -99.90      -99.90      -99.90      -99.90      -99.90      -99.90    
  32   -99.90      -99.90      -99.90      -99.90      -99.90      -99.90      -99.90      -99.90      -99.90      -99.90    
       -99.90      -99.90      -99.90      -99.90      -99.90      -99.90      -99.90      -99.90      -99.90      -99.90    
       -99.90      -99.90      -99.90      -99.90      -99.90      -99.90      -99.90      -99.90      -99.90      -99.90    
       -99.90      -99.90      -99.90      -99.90      -99.90      -99.90      -99.90      -99.90      -99.90      -99.90    
  33   -99.90      -99.90      -99.90      -99.90      -99.90      -99.90      -99.90      -99.90      -99.90      -99.90    
       -99.90      -99.90      -99.90      -99.90      -99.90      -99.90      -99.90      -99.90      -99.90      -99.90    
       -99.90      -99.90      -99.90      -99.90      -99.90      -99.90      -99.90      -99.90      -99.90      -99.90    
       -99.90      -99.90      -99.90      -99.90      -99.90      -99.90      -99.90      -99.90      -99.90      -99.90    
  34   -99.90      -99.90      -99.90      -99.90      -99.90      -99.90      -99.90      -99.90      -99.90      -99.90    
       -99.90      -99.90      -99.90      -99.90      -99.90      -99.90      -99.90      -99.90      -99.90      -99.90    
       -99.90      -99.90      -99.90      -99.90      -99.90      -99.90      -99.90      -99.90      -99.90      -99.90    
       -99.90      -99.90      -99.90      -99.90      -99.90      -99.90      -99.90      -99.90      -99.90      -99.90    
  35   -99.90      -99.90      -99.90      -99.90      -99.90      -99.90      -99.90      -99.90      -99.90      -99.90    
       -99.90      -99.90      -99.90      -99.90      -99.90      -99.90      -99.90      -99.90      -99.90      -99.90    
       -99.90      -99.90      -99.90      -99.90      -99.90      -99.90      -99.90      -99.90      -99.90      -99.90    
       -99.90      -99.90      -99.90      -99.90      -99.90      -99.90      -99.90      -99.90      -99.90      -99.90    
  36   -99.90      -99.90      -99.90      -99.90      -99.90      -99.90      -99.90      -99.90      -99.90      -99.90    
       -99.90      -99.90      -99.90      -99.90      -99.90      -99.90      -99.90      -99.90      -99.90      -99.90    
       -99.90      -99.90      -99.90      -99.90      -99.90      -99.90      -99.90      -99.90      -99.90      -99.90    
       -99.90      -99.90      -99.90      -99.90      -99.90      -99.90      -99.90      -99.90      -99.90      -99.90    
  37   -99.90      -99.90      -99.90      -99.90      -99.90      -99.90      -99.90      -99.90      -99.90      -99.90    
       -99.90      -99.90      -99.90      -99.90      -99.90      -99.90      -99.90      -99.90      -99.90      -99.90    
       -99.90      -99.90      -99.90      -99.90      -99.90      -99.90      -99.90      -99.90      -99.90      -99.90    
       -99.90      -99.90      -99.90      -99.90      -99.90      -99.90      -99.90      -99.90      -99.90      -99.90    
  38   -99.90      -99.90      -99.90      -99.90      -99.90      -99.90      -99.90      -99.90      -99.90      -99.90    
       -99.90      -99.90      -99.90      -99.90      -99.90      -99.90      -99.90      -99.90      -99.90      -99.90    
       -99.90      -99.90      -99.90      -99.90      -99.90      -99.90      -99.90      -99.90      -99.90      -99.90    
       -99.90      -99.90      -99.90      -99.90      -99.90      -99.90      -99.90      -99.90      -99.90      -99.90    
  39   -99.90      -99.90      -99.90      -99.90      -99.90      -99.90      -99.90      -99.90      -99.90      -99.90    
       -99.90      -99.90      -99.90      -99.90      -99.90      -99.90      -99.90      -99.90      -99.90      -99.90    
       -99.90      -99.90      -99.90      -99.90      -99.90      -99.90      -99.90      -99.90      -99.90      -99.90    
       -99.90      -99.90      -99.90      -99.90      -99.90      -99.90      -99.90      -99.90      -99.90      -99.90    
  40   -99.90      -99.90      -99.90      -99.90      -99.90      -99.90      -99.90      -99.90      -99.90      -99.90    
       -99.90      -99.90      -99.90      -99.90      -99.90      -99.90      -99.90      -99.90      -99.90      -99.90    
       -99.90      -99.90      -99.90      -99.90      -99.90      -99.90      -99.90      -99.90      -99.90      -99.90    
       -99.90      -99.90      -99.90      -99.90      -99.90      -99.90      -99.90      -99.90      -99.90      -99.90    
1
              HEAD IN LAYER   2 AT END OF TIME STEP   2 IN STRESS PERIOD    3
  ---------------------------------------------------------------------------

            1           2           3           4           5           6           7           8           9          10
           11          12          13          14          15          16          17          18          19          20
           21          22          23          24          25          26          27          28          29          30
           31          32          33          34          35          36          37          38          39          40
 ........................................................................................................................
   1   -99.90      -99.90      -99.90      -99.90      -99.90      -99.90      -99.90      -99.90      -99.90      -99.90    
       -99.90      -99.90      -99.90      -99.90      -99.90      -99.90      -99.90      -99.90      -99.90      -99.90    
       -99.90      -99.90      -99.90      -99.90      -99.90      -99.90      -99.90      -99.90      -99.90      -99.90    
       -99.90      -99.90      -99.90      -99.90      -99.90      -99.90      -99.90      -99.90      -99.90      -99.90    
   2   -99.90      -99.90      -99.90      -99.90      -99.90      -99.90      -99.90      -99.90      -99.90      -99.90    
       -99.90      -99.90      -99.90      -99.90      -99.90      -99.90      -99.90      -99.90      -99.90      -99.90    
       -99.90      -99.90      -99.90      -99.90      -99.90      -99.90      -99.90      -99.90      -99.90      -99.90    
       -99.90      -99.90      -99.90      -99.90      -99.90      -99.90      -99.90      -99.90      -99.90      -99.90    
   3   -99.90      -99.90      -99.90      -99.90      -99.90      -99.90      -99.90      -99.90      -99.90      -99.90    
       -99.90      -99.90      -99.90      -99.90      -99.90      -99.90      -99.90      -99.90      -99.90      -99.90    
       -99.90      -99.90      -99.90      -99.90      -99.90      -99.90      -99.90      -99.90      -99.90      -99.90    
       -99.90      -99.90      -99.90      -99.90      -99.90      -99.90      -99.90      -99.90      -99.90      -99.90    
   4   -99.90      -99.90      -99.90      -99.90      -99.90      -99.90      -99.90      -99.90      -99.90      -99.90    
       -99.90      -99.90      -99.90      -99.90      -99.90      -99.90      -99.90      -99.90      -99.90      -99.90    
       -99.90      -99.90      -99.90      -99.90      -99.90      -99.90      -99.90      -99.90      -99.90      -99.90    
       -99.90      -99.90      -99.90      -99.90      -99.90      -99.90      -99.90      -99.90      -99.90      -99.90    
   5   -99.90      -99.90      -99.90      -99.90      -99.90      -99.90      -99.90      -99.90      -99.90      -99.90    
       -99.90      -99.90      -99.90      -99.90      -99.90      -99.90      -99.90      -99.90      -99.90      -99.90    
       -99.90      -99.90      -99.90      -99.90      -99.90      -99.90      -99.90      -99.90      -99.90      -99.90    
       -99.90      -99.90      -99.90      -99.90      -99.90      -99.90      -99.90      -99.90      -99.90      -99.90    
   6   -99.90      -99.90      -99.90      -99.90      -99.90      -99.90      -99.90      -99.90      -99.90      -99.90    
       -99.90      -99.90      -99.90      -99.90      -99.90      -99.90      -99.90      -99.90      -99.90      -99.90    
       -99.90      -99.90      -99.90      -99.90      -99.90      -99.90      -99.90      -99.90      -99.90      -99.90    
       -99.90      -99.90      -99.90      -99.90      -99.90      -99.90      -99.90      -99.90      -99.90      -99.90    
   7   -99.90      -99.90      -99.90      -99.90      -99.90      -99.90      -99.90      -99.90      -99.90      -99.90    
       -99.90      -99.90      -99.90      -99.90      -99.90      -99.90      -99.90      -99.90      -99.90      -99.90    
       -99.90      -99.90      -99.90      -99.90      -99.90      -99.90      -99.90      -99.90      -99.90      -99.90    
       -99.90      -99.90      -99.90      -99.90      -99.90      -99.90      -99.90      -99.90      -99.90      -99.90    
   8   -99.90      -99.90      -99.90      -99.90      -99.90      -99.90      -99.90      -99.90      -99.90      -99.90    
       -99.90      -99.90      -99.90      -99.90      -99.90      -99.90      -99.90      -99.90      -99.90      -99.90    
       -99.90      -99.90      -99.90      -99.90      -99.90      -99.90      -99.90      -99.90      -99.90      -99.90    
       -99.90      -99.90      -99.90      -99.90      -99.90      -99.90      -99.90      -99.90      -99.90      -99.90    
   9   -99.90      -99.90      -99.90      -99.90      -99.90      -99.90      -99.90      -99.90      -99.90      -99.90    
       -99.90      -99.90      -99.90      -99.90      -99.90      -99.90      -99.90      -99.90      -99.90      -99.90    
       -99.90      -99.90      -99.90      -99.90      -99.90      -99.90      -99.90      -99.90      -99.90      -99.90    
       -99.90      -99.90      -99.90      -99.90      -99.90      -99.90      -99.90      -99.90      -99.90      -99.90    
  10   -99.90      -99.90      -99.90      -99.90      -99.90      -99.90      -99.90      -99.90      -99.90      -99.90    
       -99.90      -99.90      -99.90      -99.90      -99.90      -99.90      -99.90      -99.90      -99.90      -99.90    
       -99.90      -99.90      -99.90      -99.90      -99.90      -99.90      -99.90      -99.90      -99.90      -99.90    
       -99.90      -99.90      -99.90      -99.90      -99.90      -99.90      -99.90      -99.90      -99.90      -99.90    
  11   -99.90      -99.90      -99.90      -99.90      -99.90      -99.90      -99.90      -99.90      -99.90      -99.90    
       -99.90      -99.90      -99.90      -99.90      -99.90      -99.90      -99.90      -99.90      -99.90      -99.90    
       -99.90      -99.90      -99.90      -99.90      -99.90      -99.90      -99.90      -99.90      -99.90      -99.90    
       -99.90      -99.90      -99.90      -99.90      -99.90      -99.90      -99.90      -99.90      -99.90      -99.90    
  12   -99.90      -99.90      -99.90      -99.90      -99.90      -99.90      -99.90      -99.90      -99.90      -99.90    
       -99.90      -99.90      -99.90      -99.90      -99.90      -99.90      -99.90      -99.90      -99.90      -99.90    
       -99.90      -99.90      -99.90      -99.90      -99.90      -99.90      -99.90      -99.90      -99.90      -99.90    
       -99.90      -99.90      -99.90      -99.90      -99.90      -99.90      -99.90      -99.90      -99.90      -99.90    
  13   -99.90      -99.90      -99.90      -99.90      -99.90      -99.90      -99.90      -99.90      -99.90      -99.90    
       -99.90      -99.90      -99.90      -99.90      -99.90      -99.90      -99.90      -99.90      -99.90      -99.90    
       -99.90      -99.90      -99.90      -99.90      -99.90      -99.90      -99.90      -99.90      -99.90      -99.90    
       -99.90      -99.90      -99.90      -99.90      -99.90      -99.90      -99.90      -99.90      -99.90      -99.90    
  14   -99.90      -99.90      -99.90      -99.90      -99.90      -99.90      -99.90      -99.90      -99.90      -99.90    
       -99.90      -99.90      -99.90      -99.90      -99.90      -99.90      -99.90      -99.90      -99.90      -99.90    
       -99.90      -99.90      -99.90      -99.90      -99.90      -99.90      -99.90      -99.90      -99.90      -99.90    
       -99.90      -99.90      -99.90      -99.90      -99.90      -99.90      -99.90      -99.90      -99.90      -99.90    
  15   -99.90      -99.90      -99.90      -99.90      -99.90      -99.90      -99.90      -99.90      -99.90      -99.90    
       -99.90      -99.90      -99.90      -99.90      -99.90      -99.90      -99.90      -99.90      -99.90      -99.90    
       -99.90      -99.90      -99.90      -99.90      -99.90      -99.90      -99.90      -99.90      -99.90      -99.90    
       -99.90      -99.90      -99.90      -99.90      -99.90      -99.90      -99.90      -99.90      -99.90      -99.90    
  16   -99.90      -99.90      -99.90      -99.90      -99.90      -99.90      -99.90      -99.90      -99.90      -99.90    
       -99.90      -99.90      -99.90      -99.90      -99.90      -99.90      -99.90      -99.90      -99.90      -99.90    
       -99.90      -99.90      -99.90      -99.90      -99.90      -99.90      -99.90      -99.90      -99.90      -99.90    
       -99.90      -99.90      -99.90      -99.90      -99.90      -99.90      -99.90      -99.90      -99.90      -99.90    
  17   -99.90      -99.90      -99.90      -99.90      -99.90      -99.90      -99.90      -99.90      -99.90      -99.90    
       -99.90      -99.90      -99.90      -99.90      -99.90      -99.90      -99.90      -99.90      -99.90      -99.90    
       -99.90      -99.90      -99.90      -99.90      -99.90      -99.90      -99.90      -99.90      -99.90      -99.90    
       -99.90      -99.90      -99.90      -99.90      -99.90      -99.90      -99.90      -99.90      -99.90      -99.90    
  18   -99.90      -99.90      -99.90      -99.90      -99.90      -99.90      -99.90      -99.90      -99.90      -99.90    
       -99.90      -99.90      -99.90      -99.90      -99.90      -99.90      -99.90      -99.90      -99.90      -99.90    
       -99.90      -99.90      -99.90      -99.90      -99.90      -99.90      -99.90      -99.90      -99.90      -99.90    
       -99.90      -99.90      -99.90      -99.90      -99.90      -99.90      -99.90      -99.90      -99.90      -99.90    
  19   -99.90      -99.90      -99.90      -99.90      -99.90      -99.90      -99.90      -99.90      -99.90      -99.90    
       -99.90      -99.90      -99.90      -99.90      -99.90      -99.90      -99.90      -99.90      -99.90      -99.90    
       -99.90      -99.90      -99.90      -99.90      -99.90      -99.90      -99.90      -99.90      -99.90      -99.90    
       -99.90      -99.90      -99.90      -99.90      -99.90      -99.90      -99.90      -99.90      -99.90      -99.90    
  20   -99.90      -99.90      -99.90      -99.90      -99.90      -99.90      -99.90      -99.90      -99.90      -99.90    
       -99.90      -99.90      -99.90      -99.90      -99.90      -99.90      -99.90      -99.90      -99.90      -99.90    
       -99.90      -99.90      -99.90      -99.90      -99.90      -99.90      -99.90      -99.90      -99.90      -99.90    
       -99.90      -99.90      -99.90      -99.90      -99.90      -99.90      -99.90      -99.90      -99.90      -99.90    
  21   -99.90      -99.90      -99.90      -99.90      -99.90      -99.90      -99.90      -99.90      -99.90      -99.90    
       -99.90      -99.90      -99.90      -99.90      -99.90      -99.90      -99.90      -99.90      -99.90      -99.90    
       -99.90      -99.90      -99.90      -99.90      -99.90      -99.90      -99.90      -99.90      -99.90      -99.90    
       -99.90      -99.90      -99.90      -99.90      -99.90      -99.90      -99.90      -99.90      -99.90      -99.90    
  22   -99.90      -99.90      -99.90      -99.90      -99.90      -99.90      -99.90      -99.90      -99.90      -99.90    
       -99.90      -99.90      -99.90      -99.90      -99.90      -99.90      -99.90      -99.90      -99.90      -99.90    
       -99.90      -99.90      -99.90      -99.90      -99.90      -99.90      -99.90      -99.90      -99.90      -99.90    
       -99.90      -99.90      -99.90      -99.90      -99.90      -99.90      -99.90      -99.90      -99.90      -99.90    
  23   -99.90      -99.90      -99.90      -99.90      -99.90      -99.90      -99.90      -99.90      -99.90      -99.90    
       -99.90      -99.90      -99.90      -99.90      -99.90      -99.90      -99.90      -99.90      -99.90      -99.90    
       -99.90      -99.90      -99.90      -99.90      -99.90      -99.90      -99.90      -99.90      -99.90      -99.90    
       -99.90      -99.90      -99.90      -99.90      -99.90      -99.90      -99.90      -99.90      -99.90      -99.90    
  24   -99.90      -99.90      -99.90      -99.90      -99.90      -99.90      -99.90      -99.90      -99.90      -99.90    
       -99.90      -99.90      -99.90      -99.90      -99.90      -99.90      -99.90      -99.90      -99.90      -99.90    
       -99.90      -99.90      -99.90      -99.90      -99.90      -99.90      -99.90      -99.90      -99.90      -99.90    
       -99.90      -99.90      -99.90      -99.90      -99.90      -99.90      -99.90      -99.90      -99.90      -99.90    
  25   -99.90      -99.90      -99.90      -99.90      -99.90      -99.90      -99.90      -99.90      -99.90      -99.90    
       -99.90      -99.90      -99.90      -99.90      -99.90      -99.90      -99.90      -99.90      -99.90      -99.90    
       -99.90      -99.90      -99.90      -99.90      -99.90      -99.90      -99.90      -99.90      -99.90      -99.90    
       -99.90      -99.90      -99.90      -99.90      -99.90      -99.90      -99.90      -99.90      -99.90      -99.90    
  26   -99.90      -99.90      -99.90      -99.90      -99.90      -99.90      -99.90      -99.90      -99.90      -99.90    
       -99.90      -99.90      -99.90      -99.90      -99.90      -99.90      -99.90      -99.90      -99.90      -99.90    
       -99.90      -99.90      -99.90      -99.90      -99.90      -99.90      -99.90      -99.90      -99.90      -99.90    
       -99.90      -99.90      -99.90      -99.90      -99.90      -99.90      -99.90      -99.90      -99.90      -99.90    
  27   -99.90      -99.90      -99.90      -99.90      -99.90      -99.90      -99.90      -99.90      -99.90      -99.90    
       -99.90      -99.90      -99.90      -99.90      -99.90      -99.90      -99.90      -99.90      -99.90      -99.90    
       -99.90      -99.90      -99.90      -99.90      -99.90      -99.90      -99.90      -99.90      -99.90      -99.90    
       -99.90      -99.90      -99.90      -99.90      -99.90      -99.90      -99.90      -99.90      -99.90      -99.90    
  28   -99.90      -99.90      -99.90      -99.90      -99.90      -99.90      -99.90      -99.90      -99.90      -99.90    
       -99.90      -99.90      -99.90      -99.90      -99.90      -99.90      -99.90      -99.90      -99.90      -99.90    
       -99.90      -99.90      -99.90      -99.90      -99.90      -99.90      -99.90      -99.90      -99.90      -99.90    
       -99.90      -99.90      -99.90      -99.90      -99.90      -99.90      -99.90      -99.90      -99.90      -99.90    
  29   -99.90      -99.90      -99.90      -99.90      -99.90      -99.90      -99.90      -99.90      -99.90      -99.90    
       -99.90      -99.90      -99.90      -99.90      -99.90      -99.90      -99.90      -99.90      -99.90      -99.90    
       -99.90      -99.90      -99.90      -99.90      -99.90      -99.90      -99.90      -99.90      -99.90      -99.90    
       -99.90      -99.90      -99.90      -99.90      -99.90      -99.90      -99.90      -99.90      -99.90      -99.90    
  30   -99.90      -99.90      -99.90      -99.90      -99.90      -99.90      -99.90      -99.90      -99.90      -99.90    
       -99.90      -99.90      -99.90      -99.90      -99.90      -99.90      -99.90      -99.90      -99.90      -99.90    
       -99.90      -99.90      -99.90      -99.90      -99.90      -99.90      -99.90      -99.90      -99.90      -99.90    
       -99.90      -99.90      -99.90      -99.90      -99.90      -99.90      -99.90      -99.90      -99.90      -99.90    
  31   -99.90      -99.90      -99.90      -99.90      -99.90      -99.90      -99.90      -99.90      -99.90      -99.90    
       -99.90      -99.90      -99.90      -99.90      -99.90      -99.90      -99.90      -99.90      -99.90      -99.90    
       -99.90      -99.90      -99.90      -99.90      -99.90      -99.90      -99.90      -99.90      -99.90      -99.90    
       -99.90      -99.90      -99.90      -99.90      -99.90      -99.90      -99.90      -99.90      -99.90      -99.90    
  32   -99.90      -99.90      -99.90      -99.90      -99.90      -99.90      -99.90      -99.90      -99.90      -99.90    
       -99.90      -99.90      -99.90      -99.90      -99.90      -99.90      -99.90      -99.90      -99.90      -99.90    
       -99.90      -99.90      -99.90      -99.90      -99.90      -99.90      -99.90      -99.90      -99.90      -99.90    
       -99.90      -99.90      -99.90      -99.90      -99.90      -99.90      -99.90      -99.90      -99.90      -99.90    
  33   -99.90      -99.90      -99.90      -99.90      -99.90      -99.90      -99.90      -99.90      -99.90      -99.90    
       -99.90      -99.90      -99.90      -99.90      -99.90      -99.90      -99.90      -99.90      -99.90      -99.90    
       -99.90      -99.90      -99.90      -99.90      -99.90      -99.90      -99.90      -99.90      -99.90      -99.90    
       -99.90      -99.90      -99.90      -99.90      -99.90      -99.90      -99.90      -99.90      -99.90      -99.90    
  34   -99.90      -99.90      -99.90      -99.90      -99.90      -99.90      -99.90      -99.90      -99.90      -99.90    
       -99.90      -99.90      -99.90      -99.90      -99.90      -99.90      -99.90      -99.90      -99.90      -99.90    
       -99.90      -99.90      -99.90      -99.90      -99.90      -99.90      -99.90      -99.90      -99.90      -99.90    
       -99.90      -99.90      -99.90      -99.90      -99.90      -99.90      -99.90      -99.90      -99.90      -99.90    
  35   -99.90      -99.90      -99.90      -99.90      -99.90      -99.90      -99.90      -99.90      -99.90      -99.90    
       -99.90      -99.90      -99.90      -99.90      -99.90      -99.90      -99.90      -99.90      -99.90      -99.90    
       -99.90      -99.90      -99.90      -99.90      -99.90      -99.90      -99.90      -99.90      -99.90      -99.90    
       -99.90      -99.90      -99.90      -99.90      -99.90      -99.90      -99.90      -99.90      -99.90      -99.90    
  36   -99.90      -99.90      -99.90      -99.90      -99.90      -99.90      -99.90      -99.90      -99.90      -99.90    
       -99.90      -99.90      -99.90      -99.90      -99.90      -99.90      -99.90      -99.90      -99.90      -99.90    
       -99.90      -99.90      -99.90      -99.90      -99.90      -99.90      -99.90      -99.90      -99.90      -99.90    
       -99.90      -99.90      -99.90      -99.90      -99.90      -99.90      -99.90      -99.90      -99.90      -99.90    
  37   -99.90      -99.90      -99.90      -99.90      -99.90      -99.90      -99.90      -99.90      -99.90      -99.90    
       -99.90      -99.90      -99.90      -99.90      -99.90      -99.90      -99.90      -99.90      -99.90      -99.90    
       -99.90      -99.90      -99.90      -99.90      -99.90      -99.90      -99.90      -99.90      -99.90      -99.90    
       -99.90      -99.90      -99.90      -99.90      -99.90      -99.90      -99.90      -99.90      -99.90      -99.90    
  38   -99.90      -99.90      -99.90      -99.90      -99.90      -99.90      -99.90      -99.90      -99.90      -99.90    
       -99.90      -99.90      -99.90      -99.90      -99.90      -99.90      -99.90      -99.90      -99.90      -99.90    
       -99.90      -99.90      -99.90      -99.90      -99.90      -99.90      -99.90      -99.90      -99.90      -99.90    
       -99.90      -99.90      -99.90      -99.90      -99.90      -99.90      -99.90      -99.90      -99.90      -99.90    
  39   -99.90      -99.90      -99.90      -99.90      -99.90      -99.90      -99.90      -99.90      -99.90      -99.90    
       -99.90      -99.90      -99.90      -99.90      -99.90      -99.90      -99.90      -99.90      -99.90      -99.90    
       -99.90      -99.90      -99.90      -99.90      -99.90      -99.90      -99.90      -99.90      -99.90      -99.90    
       -99.90      -99.90      -99.90      -99.90      -99.90      -99.90      -99.90      -99.90      -99.90      -99.90    
  40   -99.90      -99.90      -99.90      -99.90      -99.90      -99.90      -99.90      -99.90      -99.90      -99.90    
       -99.90      -99.90      -99.90      -99.90      -99.90      -99.90      -99.90      -99.90      -99.90      -99.90    
       -99.90      -99.90      -99.90      -99.90      -99.90      -99.90      -99.90      -99.90      -99.90      -99.90    
       -99.90      -99.90      -99.90      -99.90      -99.90      -99.90      -99.90      -99.90      -99.90      -99.90    
1
              HEAD IN LAYER   3 AT END OF TIME STEP   2 IN STRESS PERIOD    3
  ---------------------------------------------------------------------------

            1           2           3           4           5           6           7           8           9          10
           11          12          13          14          15          16          17          18          19          20
           21          22          23          24          25          26          27          28          29          30
           31          32          33          34          35          36          37          38          39          40
 ........................................................................................................................
   1   -99.90      -99.90      -99.90      -99.90      -99.90      -99.90      -99.90      -99.90      -99.90      -99.90    
       -99.90      -99.90      -99.90      -99.90      -99.90      -99.90      -99.90      -99.90      -99.90      -99.90    
       -99.90      -99.90      -99.90      -99.90      -99.90      -99.90      -99.90      -99.90      -99.90      -99.90    
       -99.90      -99.90      -99.90      -99.90      -99.90      -99.90      -99.90      -99.90      -99.90      -99.90    
   2   -99.90      -99.90      -99.90      -99.90      -99.90      -99.90      -99.90      -99.90      -99.90      -99.90    
       -99.90      -99.90      -99.90      -99.90      -99.90      -99.90      -99.90      -99.90      -99.90      -99.90    
       -99.90      -99.90      -99.90      -99.90      -99.90      -99.90      -99.90      -99.90      -99.90      -99.90    
       -99.90      -99.90      -99.90      -99.90      -99.90      -99.90      -99.90      -99.90      -99.90      -99.90    
   3   -99.90      -99.90      -99.90      -99.90      -99.90      -99.90      -99.90      -99.90      -99.90      -99.90    
       -99.90      -99.90      -99.90      -99.90      -99.90      -99.90      -99.90      -99.90      -99.90      -99.90    
       -99.90      -99.90      -99.90      -99.90      -99.90      -99.90      -99.90      -99.90      -99.90      -99.90    
       -99.90      -99.90      -99.90      -99.90      -99.90      -99.90      -99.90      -99.90      -99.90      -99.90    
   4   -99.90      -99.90      -99.90      -99.90      -99.90      -99.90      -99.90      -99.90      -99.90      -99.90    
       -99.90      -99.90      -99.90      -99.90      -99.90      -99.90      -99.90      -99.90      -99.90      -99.90    
       -99.90      -99.90      -99.90      -99.90      -99.90      -99.90      -99.90      -99.90      -99.90      -99.90    
       -99.90      -99.90      -99.90      -99.90      -99.90      -99.90      -99.90      -99.90      -99.90      -99.90    
   5   -99.90      -99.90      -99.90      -99.90      -99.90      -99.90      -99.90      -99.90      -99.90      -99.90    
       -99.90      -99.90      -99.90      -99.90      -99.90      -99.90      -99.90      -99.90      -99.90      -99.90    
       -99.90      -99.90      -99.90      -99.90      -99.90      -99.90      -99.90      -99.90      -99.90      -99.90    
       -99.90      -99.90      -99.90      -99.90      -99.90      -99.90      -99.90      -99.90      -99.90      -99.90    
   6   -99.90      -99.90      -99.90      -99.90      -99.90      -99.90      -99.90      -99.90      -99.90      -99.90    
       -99.90      -99.90      -99.90      -99.90      -99.90      -99.90      -99.90      -99.90      -99.90      -99.90    
       -99.90      -99.90      -99.90      -99.90      -99.90      -99.90      -99.90      -99.90      -99.90      -99.90    
       -99.90      -99.90      -99.90      -99.90      -99.90      -99.90      -99.90      -99.90      -99.90      -99.90    
   7   -99.90      -99.90      -99.90      -99.90      -99.90      -99.90      -99.90      -99.90      -99.90      -99.90    
       -99.90      -99.90      -99.90      -99.90      -99.90      -99.90      -99.90      -99.90      -99.90      -99.90    
       -99.90      -99.90      -99.90      -99.90      -99.90      -99.90      -99.90      -99.90      -99.90      -99.90    
       -99.90      -99.90      -99.90      -99.90      -99.90      -99.90      -99.90      -99.90      -99.90      -99.90    
   8   -99.90      -99.90      -99.90      -99.90      -99.90      -99.90      -99.90      -99.90      -99.90      -99.90    
       -99.90      -99.90      -99.90      -99.90      -99.90      -99.90      -99.90      -99.90      -99.90      -99.90    
       -99.90      -99.90      -99.90      -99.90      -99.90      -99.90      -99.90      -99.90      -99.90      -99.90    
       -99.90      -99.90      -99.90      -99.90      -99.90      -99.90      -99.90      -99.90      -99.90      -99.90    
   9   -99.90      -99.90      -99.90      -99.90      -99.90      -99.90      -99.90      -99.90      -99.90      -99.90    
       -99.90      -99.90      -99.90      -99.90      -99.90      -99.90      -99.90      -99.90      -99.90      -99.90    
       -99.90      -99.90      -99.90      -99.90      -99.90      -99.90      -99.90      -99.90      -99.90      -99.90    
       -99.90      -99.90      -99.90      -99.90      -99.90      -99.90      -99.90      -99.90      -99.90      -99.90    
  10   -99.90      -99.90      -99.90      -99.90      -99.90      -99.90      -99.90      -99.90      -99.90      -99.90    
       -99.90      -99.90      -99.90      -99.90      -99.90      -99.90      -99.90      -99.90      -99.90      -99.90    
       -99.90      -99.90      -99.90      -99.90      -99.90      -99.90      -99.90      -99.90      -99.90      -99.90    
       -99.90      -99.90      -99.90      -99.90      -99.90      -99.90      -99.90      -99.90      -99.90      -99.90    
  11   -99.90      -99.90      -99.90      -99.90      -99.90      -99.90      -99.90      -99.90      -99.90      -99.90    
       -99.90      -99.90      -99.90      -99.90      -99.90      -99.90      -99.90      -99.90      -99.90      -99.90    
       -99.90      -99.90      -99.90      -99.90      -99.90      -99.90      -99.90      -99.90      -99.90      -99.90    
       -99.90      -99.90      -99.90      -99.90      -99.90      -99.90      -99.90      -99.90      -99.90      -99.90    
  12   -99.90      -99.90      -99.90      -99.90      -99.90      -99.90      -99.90      -99.90      -99.90      -99.90    
       -99.90      -99.90      -99.90      -99.90      -99.90      -99.90      -99.90      -99.90      -99.90      -99.90    
       -99.90      -99.90      -99.90      -99.90      -99.90      -99.90      -99.90      -99.90      -99.90      -99.90    
       -99.90      -99.90      -99.90      -99.90      -99.90      -99.90      -99.90      -99.90      -99.90      -99.90    
  13   -99.90      -99.90      -99.90      -99.90      -99.90      -99.90      -99.90      -99.90      -99.90      -99.90    
       -99.90      -99.90      -99.90      -99.90      -99.90      -99.90      -99.90      -99.90      -99.90      -99.90    
       -99.90      -99.90      -99.90      -99.90      -99.90      -99.90      -99.90      -99.90      -99.90      -99.90    
       -99.90      -99.90      -99.90      -99.90      -99.90      -99.90      -99.90      -99.90      -99.90      -99.90    
  14   -99.90      -99.90      -99.90      -99.90      -99.90      -99.90      -99.90      -99.90      -99.90      -99.90    
       -99.90      -99.90      -99.90      -99.90      -99.90      -99.90      -99.90      -99.90      -99.90      -99.90    
       -99.90      -99.90      -99.90      -99.90      -99.90      -99.90      -99.90      -99.90      -99.90      -99.90    
       -99.90      -99.90      -99.90      -99.90      -99.90      -99.90      -99.90      -99.90      -99.90      -99.90    
  15   -99.90      -99.90      -99.90      -99.90      -99.90      -99.90      -99.90      -99.90      -99.90      -99.90    
       -99.90      -99.90      -99.90      -99.90      -99.90      -99.90      -99.90      -99.90      -99.90      -99.90    
       -99.90      -99.90      -99.90      -99.90      -99.90      -99.90      -99.90      -99.90      -99.90      -99.90    
       -99.90      -99.90      -99.90      -99.90      -99.90      -99.90      -99.90      -99.90      -99.90      -99.90    
  16   -99.90      -99.90      -99.90      -99.90      -99.90      -99.90      -99.90      -99.90      -99.90      -99.90    
       -99.90      -99.90      -99.90      -99.90      -99.90      -99.90      -99.90      -99.90      -99.90      -99.90    
       -99.90      -99.90      -99.90      -99.90      -99.90      -99.90      -99.90      -99.90      -99.90      -99.90    
       -99.90      -99.90      -99.90      -99.90      -99.90      -99.90      -99.90      -99.90      -99.90      -99.90    
  17   -99.90      -99.90      -99.90      -99.90      -99.90      -99.90      -99.90      -99.90      -99.90      -99.90    
       -99.90      -99.90      -99.90      -99.90      -99.90      -99.90      -99.90      -99.90      -99.90      -99.90    
       -99.90      -99.90      -99.90      -99.90      -99.90      -99.90      -99.90      -99.90      -99.90      -99.90    
       -99.90      -99.90      -99.90      -99.90      -99.90      -99.90      -99.90      -99.90      -99.90      -99.90    
  18   -99.90      -99.90      -99.90      -99.90      -99.90      -99.90      -99.90      -99.90      -99.90      -99.90    
       -99.90      -99.90      -99.90      -99.90      -99.90      -99.90      -99.90      -99.90      -99.90      -99.90    
       -99.90      -99.90      -99.90      -99.90      -99.90      -99.90      -99.90      -99.90      -99.90      -99.90    
       -99.90      -99.90      -99.90      -99.90      -99.90      -99.90      -99.90      -99.90      -99.90      -99.90    
  19   -99.90      -99.90      -99.90      -99.90      -99.90      -99.90      -99.90      -99.90      -99.90      -99.90    
       -99.90      -99.90      -99.90      -99.90      -99.90      -99.90      -99.90      -99.90      -99.90      -99.90    
       -99.90      -99.90      -99.90      -99.90      -99.90      -99.90      -99.90      -99.90      -99.90      -99.90    
       -99.90      -99.90      -99.90      -99.90      -99.90      -99.90      -99.90      -99.90      -99.90      -99.90    
  20   -99.90      -99.90      -99.90      -99.90      -99.90      -99.90      -99.90      -99.90      -99.90      -99.90    
       -99.90      -99.90      -99.90      -99.90      -99.90      -99.90      -99.90      -99.90      -99.90      -99.90    
       -99.90      -99.90      -99.90      -99.90      -99.90      -99.90      -99.90      -99.90      -99.90      -99.90    
       -99.90      -99.90      -99.90      -99.90      -99.90      -99.90      -99.90      -99.90      -99.90      -99.90    
  21   -99.90      -99.90      -99.90      -99.90      -99.90      -99.90      -99.90      -99.90      -99.90      -99.90    
       -99.90      -99.90      -99.90      -99.90      -99.90      -99.90      -99.90      -99.90      -99.90      -99.90    
       -99.90      -99.90      -99.90      -99.90      -99.90      -99.90      -99.90      -99.90      -99.90      -99.90    
       -99.90      -99.90      -99.90      -99.90      -99.90      -99.90      -99.90      -99.90      -99.90      -99.90    
  22   -99.90      -99.90      -99.90      -99.90      -99.90      -99.90      -99.90      -99.90      -99.90      -99.90    
       -99.90      -99.90      -99.90      -99.90      -99.90      -99.90      -99.90      -99.90      -99.90      -99.90    
       -99.90      -99.90      -99.90      -99.90      -99.90      -99.90      -99.90      -99.90      -99.90      -99.90    
       -99.90      -99.90      -99.90      -99.90      -99.90      -99.90      -99.90      -99.90      -99.90      -99.90    
  23   -99.90      -99.90      -99.90      -99.90      -99.90      -99.90      -99.90      -99.90      -99.90      -99.90    
       -99.90      -99.90      -99.90      -99.90      -99.90      -99.90      -99.90      -99.90      -99.90      -99.90    
       -99.90      -99.90      -99.90      -99.90      -99.90      -99.90      -99.90      -99.90      -99.90      -99.90    
       -99.90      -99.90      -99.90      -99.90      -99.90      -99.90      -99.90      -99.90      -99.90      -99.90    
  24   -99.90      -99.90      -99.90      -99.90      -99.90      -99.90      -99.90      -99.90      -99.90      -99.90    
       -99.90      -99.90      -99.90      -99.90      -99.90      -99.90      -99.90      -99.90      -99.90      -99.90    
       -99.90      -99.90      -99.90      -99.90      -99.90      -99.90      -99.90      -99.90      -99.90      -99.90    
       -99.90      -99.90      -99.90      -99.90      -99.90      -99.90      -99.90      -99.90      -99.90      -99.90    
  25   -99.90      -99.90      -99.90      -99.90      -99.90      -99.90      -99.90      -99.90      -99.90      -99.90    
       -99.90      -99.90      -99.90      -99.90      -99.90      -99.90      -99.90      -99.90      -99.90      -99.90    
       -99.90      -99.90      -99.90      -99.90      -99.90      -99.90      -99.90      -99.90      -99.90      -99.90    
       -99.90      -99.90      -99.90      -99.90      -99.90      -99.90      -99.90      -99.90      -99.90      -99.90    
  26   -99.90      -99.90      -99.90      -99.90      -99.90      -99.90      -99.90      -99.90      -99.90      -99.90    
       -99.90      -99.90      -99.90      -99.90      -99.90      -99.90      -99.90      -99.90      -99.90      -99.90    
       -99.90      -99.90      -99.90      -99.90      -99.90      -99.90      -99.90      -99.90      -99.90      -99.90    
       -99.90      -99.90      -99.90      -99.90      -99.90      -99.90      -99.90      -99.90      -99.90      -99.90    
  27   -99.90      -99.90      -99.90      -99.90      -99.90      -99.90      -99.90      -99.90      -99.90      -99.90    
       -99.90      -99.90      -99.90      -99.90      -99.90      -99.90      -99.90      -99.90      -99.90      -99.90    
       -99.90      -99.90      -99.90      -99.90      -99.90      -99.90      -99.90      -99.90      -99.90      -99.90    
       -99.90      -99.90      -99.90      -99.90      -99.90      -99.90      -99.90      -99.90      -99.90      -99.90    
  28   -99.90      -99.90      -99.90      -99.90      -99.90      -99.90      -99.90      -99.90      -99.90      -99.90    
       -99.90      -99.90      -99.90      -99.90      -99.90      -99.90      -99.90      -99.90      -99.90      -99.90    
       -99.90      -99.90      -99.90      -99.90      -99.90      -99.90      -99.90      -99.90      -99.90      -99.90    
       -99.90      -99.90      -99.90      -99.90      -99.90      -99.90      -99.90      -99.90      -99.90      -99.90    
  29   -99.90      -99.90      -99.90      -99.90      -99.90      -99.90      -99.90      -99.90      -99.90      -99.90    
       -99.90      -99.90      -99.90      -99.90      -99.90      -99.90      -99.90      -99.90      -99.90      -99.90    
       -99.90      -99.90      -99.90      -99.90      -99.90      -99.90      -99.90      -99.90      -99.90      -99.90    
       -99.90      -99.90      -99.90      -99.90      -99.90      -99.90      -99.90      -99.90      -99.90      -99.90    
  30   -99.90      -99.90      -99.90      -99.90      -99.90      -99.90      -99.90      -99.90      -99.90      -99.90    
       -99.90      -99.90      -99.90      -99.90      -99.90      -99.90      -99.90      -99.90      -99.90      -99.90    
       -99.90      -99.90      -99.90      -99.90      -99.90      -99.90      -99.90      -99.90      -99.90      -99.90    
       -99.90      -99.90      -99.90      -99.90      -99.90      -99.90      -99.90      -99.90      -99.90      -99.90    
  31   -99.90      -99.90      -99.90      -99.90      -99.90      -99.90      -99.90      -99.90      -99.90      -99.90    
       -99.90      -99.90      -99.90      -99.90      -99.90      -99.90      -99.90      -99.90      -99.90      -99.90    
       -99.90      -99.90      -99.90      -99.90      -99.90      -99.90      -99.90      -99.90      -99.90      -99.90    
       -99.90      -99.90      -99.90      -99.90      -99.90      -99.90      -99.90      -99.90      -99.90      -99.90    
  32   -99.90      -99.90      -99.90      -99.90      -99.90      -99.90      -99.90      -99.90      -99.90      -99.90    
       -99.90      -99.90      -99.90      -99.90      -99.90      -99.90      -99.90      -99.90      -99.90      -99.90    
       -99.90      -99.90      -99.90      -99.90      -99.90      -99.90      -99.90      -99.90      -99.90      -99.90    
       -99.90      -99.90      -99.90      -99.90      -99.90      -99.90      -99.90      -99.90      -99.90      -99.90    
  33   -99.90      -99.90      -99.90      -99.90      -99.90      -99.90      -99.90      -99.90      -99.90      -99.90    
       -99.90      -99.90      -99.90      -99.90      -99.90      -99.90      -99.90      -99.90      -99.90      -99.90    
       -99.90      -99.90      -99.90      -99.90      -99.90      -99.90      -99.90      -99.90      -99.90      -99.90    
       -99.90      -99.90      -99.90      -99.90      -99.90      -99.90      -99.90      -99.90      -99.90      -99.90    
  34   -99.90      -99.90      -99.90      -99.90      -99.90      -99.90      -99.90      -99.90      -99.90      -99.90    
       -99.90      -99.90      -99.90      -99.90      -99.90      -99.90      -99.90      -99.90      -99.90      -99.90    
       -99.90      -99.90      -99.90      -99.90      -99.90      -99.90      -99.90      -99.90      -99.90      -99.90    
       -99.90      -99.90      -99.90      -99.90      -99.90      -99.90      -99.90      -99.90      -99.90      -99.90    
  35   -99.90      -99.90      -99.90      -99.90      -99.90      -99.90      -99.90      -99.90      -99.90      -99.90    
       -99.90      -99.90      -99.90      -99.90      -99.90      -99.90      -99.90      -99.90      -99.90      -99.90    
       -99.90      -99.90      -99.90      -99.90      -99.90      -99.90      -99.90      -99.90      -99.90      -99.90    
       -99.90      -99.90      -99.90      -99.90      -99.90      -99.90      -99.90      -99.90      -99.90      -99.90    
  36   -99.90      -99.90      -99.90      -99.90      -99.90      -99.90      -99.90      -99.90      -99.90      -99.90    
       -99.90      -99.90      -99.90      -99.90      -99.90      -99.90      -99.90      -99.90      -99.90      -99.90    
       -99.90      -99.90      -99.90      -99.90      -99.90      -99.90      -99.90      -99.90      -99.90      -99.90    
       -99.90      -99.90      -99.90      -99.90      -99.90      -99.90      -99.90      -99.90      -99.90      -99.90    
  37   -99.90      -99.90      -99.90      -99.90      -99.90      -99.90      -99.90      -99.90      -99.90      -99.90    
       -99.90      -99.90      -99.90      -99.90      -99.90      -99.90      -99.90      -99.90      -99.90      -99.90    
       -99.90      -99.90      -99.90      -99.90      -99.90      -99.90      -99.90      -99.90      -99.90      -99.90    
       -99.90      -99.90      -99.90      -99.90      -99.90      -99.90      -99.90      -99.90      -99.90      -99.90    
  38   -99.90      -99.90      -99.90      -99.90      -99.90      -99.90      -99.90      -99.90      -99.90      -99.90    
       -99.90      -99.90      -99.90      -99.90      -99.90      -99.90      -99.90      -99.90      -99.90      -99.90    
       -99.90      -99.90      -99.90      -99.90      -99.90      -99.90      -99.90      -99.90      -99.90      -99.90    
       -99.90      -99.90      -99.90      -99.90      -99.90      -99.90      -99.90      -99.90      -99.90      -99.90    
  39   -99.90      -99.90      -99.90      -99.90      -99.90      -99.90      -99.90      -99.90      -99.90      -99.90    
       -99.90      -99.90      -99.90      -99.90      -99.90      -99.90      -99.90      -99.90      -99.90      -99.90    
       -99.90      -99.90      -99.90      -99.90      -99.90      -99.90      -99.90      -99.90      -99.90      -99.90    
       -99.90      -99.90      -99.90      -99.90      -99.90      -99.90      -99.90      -99.90      -99.90      -99.90    
  40   -99.90      -99.90      -99.90      -99.90      -99.90      -99.90      -99.90      -99.90      -99.90      -99.90    
       -99.90      -99.90      -99.90      -99.90      -99.90      -99.90      -99.90      -99.90      -99.90      -99.90    
       -99.90      -99.90      -99.90      -99.90      -99.90      -99.90      -99.90      -99.90      -99.90      -99.90    
       -99.90      -99.90      -99.90      -99.90      -99.90      -99.90      -99.90      -99.90      -99.90      -99.90    
1
              HEAD IN LAYER   4 AT END OF TIME STEP   2 IN STRESS PERIOD    3
  ---------------------------------------------------------------------------

            1           2           3           4           5           6           7           8           9          10
           11          12          13          14          15          16          17          18          19          20
           21          22          23          24          25          26          27          28          29          30
           31          32          33          34          35          36          37          38          39          40
 ........................................................................................................................
   1   -99.90      -99.90      -99.90      -99.90      -99.90      -99.90      -99.90      -99.90      -99.90      -99.90    
       -99.90      -99.90      -99.90      -99.90      -99.90      -99.90      -99.90      -99.90      -99.90      -99.90    
       -99.90      -99.90      -99.90      -99.90      -99.90      -99.90      -99.90      -99.90      -99.90      -99.90    
       -99.90      -99.90      -99.90      -99.90      -99.90      -99.90      -99.90      -99.90      -99.90      -99.90    
   2   -99.90      -99.90      -99.90      -99.90      -99.90      -99.90      -99.90      -99.90      -99.90      -99.90    
       -99.90      -99.90      -99.90      -99.90      -99.90      -99.90      -99.90      -99.90      -99.90      -99.90    
       -99.90      -99.90      -99.90      -99.90      -99.90      -99.90      -99.90      -99.90      -99.90      -99.90    
       -99.90      -99.90      -99.90      -99.90      -99.90      -99.90      -99.90      -99.90      -99.90      -99.90    
   3   -99.90      -99.90      -99.90      -99.90      -99.90      -99.90      -99.90      -99.90      -99.90      -99.90    
       -99.90      -99.90      -99.90      -99.90      -99.90      -99.90      -99.90      -99.90      -99.90      -99.90    
       -99.90      -99.90      -99.90      -99.90      -99.90      -99.90      -99.90      -99.90      -99.90      -99.90    
       -99.90      -99.90      -99.90      -99.90      -99.90      -99.90      -99.90      -99.90      -99.90      -99.90    
   4   -99.90      -99.90      -99.90      -99.90      -99.90      -99.90      -99.90      -99.90      -99.90      -99.90    
       -99.90      -99.90      -99.90      -99.90      -99.90      -99.90      -99.90      -99.90      -99.90      -99.90    
       -99.90      -99.90      -99.90      -99.90      -99.90      -99.90      -99.90      -99.90      -99.90      -99.90    
       -99.90      -99.90      -99.90      -99.90      -99.90      -99.90      -99.90      -99.90      -99.90      -99.90    
   5   -99.90      -99.90      -99.90      -99.90      -99.90      -99.90      -99.90      -99.90      -99.90      -99.90    
       -99.90      -99.90      -99.90      -99.90      -99.90      -99.90      -99.90      -99.90      -99.90      -99.90    
       -99.90      -99.90      -99.90      -99.90      -99.90      -99.90      -99.90      -99.90      -99.90      -99.90    
       -99.90      -99.90      -99.90      -99.90      -99.90      -99.90      -99.90      -99.90      -99.90      -99.90    
   6   -99.90      -99.90      -99.90      -99.90      -99.90      -99.90      -99.90      -99.90      -99.90      -99.90    
       -99.90      -99.90      -99.90      -99.90      -99.90      -99.90      -99.90      -99.90      -99.90      -99.90    
       -99.90      -99.90      -99.90      -99.90      -99.90      -99.90      -99.90      -99.90      -99.90      -99.90    
       -99.90      -99.90      -99.90      -99.90      -99.90      -99.90      -99.90      -99.90      -99.90      -99.90    
   7   -99.90      -99.90      -99.90      -99.90      -99.90      -99.90      -99.90      -99.90      -99.90      -99.90    
       -99.90      -99.90      -99.90      -99.90      -99.90      -99.90      -99.90      -99.90      -99.90      -99.90    
       -99.90      -99.90      -99.90      -99.90      -99.90      -99.90      -99.90      -99.90      -99.90      -99.90    
       -99.90      -99.90      -99.90      -99.90      -99.90      -99.90      -99.90      -99.90      -99.90      -99.90    
   8   -99.90      -99.90      -99.90      -99.90      -99.90      -99.90      -99.90      -99.90      -99.90      -99.90    
       -99.90      -99.90      -99.90      -99.90      -99.90      -99.90      -99.90      -99.90      -99.90      -99.90    
       -99.90      -99.90      -99.90      -99.90      -99.90      -99.90      -99.90      -99.90      -99.90      -99.90    
       -99.90      -99.90      -99.90      -99.90      -99.90      -99.90      -99.90      -99.90      -99.90      -99.90    
   9   -99.90      -99.90      -99.90      -99.90      -99.90      -99.90      -99.90      -99.90      -99.90      -99.90    
       -99.90      -99.90      -99.90      -99.90      -99.90      -99.90      -99.90      -99.90      -99.90      -99.90    
       -99.90      -99.90      -99.90      -99.90      -99.90      -99.90      -99.90      -99.90      -99.90      -99.90    
       -99.90      -99.90      -99.90      -99.90      -99.90      -99.90      -99.90      -99.90      -99.90      -99.90    
  10   -99.90      -99.90      -99.90      -99.90      -99.90      -99.90      -99.90      -99.90      -99.90      -99.90    
       -99.90      -99.90      -99.90      -99.90      -99.90      -99.90      -99.90      -99.90      -99.90      -99.90    
       -99.90      -99.90      -99.90      -99.90      -99.90      -99.90      -99.90      -99.90      -99.90      -99.90    
       -99.90      -99.90      -99.90      -99.90      -99.90      -99.90      -99.90      -99.90      -99.90      -99.90    
  11   -99.90      -99.90      -99.90      -99.90      -99.90      -99.90      -99.90      -99.90      -99.90      -99.90    
       -99.90      -99.90      -99.90      -99.90      -99.90      -99.90      -99.90      -99.90      -99.90      -99.90    
       -99.90      -99.90      -99.90      -99.90      -99.90      -99.90      -99.90      -99.90      -99.90      -99.90    
       -99.90      -99.90      -99.90      -99.90      -99.90      -99.90      -99.90      -99.90      -99.90      -99.90    
  12   -99.90      -99.90      -99.90      -99.90      -99.90      -99.90      -99.90      -99.90      -99.90      -99.90    
       -99.90      -99.90      -99.90      -99.90      -99.90      -99.90      -99.90      -99.90      -99.90      -99.90    
       -99.90      -99.90      -99.90      -99.90      -99.90      -99.90      -99.90      -99.90      -99.90      -99.90    
       -99.90      -99.90      -99.90      -99.90      -99.90      -99.90      -99.90      -99.90      -99.90      -99.90    
  13   -99.90      -99.90      -99.90      -99.90      -99.90      -99.90      -99.90      -99.90      -99.90      -99.90    
       -99.90      -99.90      -99.90      -99.90      -99.90      -99.90      -99.90      -99.90      -99.90      -99.90    
       -99.90      -99.90      -99.90      -99.90      -99.90      -99.90      -99.90      -99.90      -99.90      -99.90    
       -99.90      -99.90      -99.90      -99.90      -99.90      -99.90      -99.90      -99.90      -99.90      -99.90    
  14   -99.90      -99.90      -99.90      -99.90      -99.90      -99.90      -99.90      -99.90      -99.90      -99.90    
       -99.90      -99.90      -99.90      -99.90      -99.90      -99.90      -99.90      -99.90      -99.90      -99.90    
       -99.90      -99.90      -99.90      -99.90      -99.90      -99.90      -99.90      -99.90      -99.90      -99.90    
       -99.90      -99.90      -99.90      -99.90      -99.90      -99.90      -99.90      -99.90      -99.90      -99.90    
  15   -99.90      -99.90      -99.90      -99.90      -99.90      -99.90      -99.90      -99.90      -99.90      -99.90    
       -99.90      -99.90      -99.90      -99.90      -99.90      -99.90      -99.90      -99.90      -99.90      -99.90    
       -99.90      -99.90      -99.90      -99.90      -99.90      -99.90      -99.90      -99.90      -99.90      -99.90    
       -99.90      -99.90      -99.90      -99.90      -99.90      -99.90      -99.90      -99.90      -99.90      -99.90    
  16   -99.90      -99.90      -99.90      -99.90      -99.90      -99.90      -99.90      -99.90      -99.90      -99.90    
       -99.90      -99.90      -99.90      -99.90      -99.90      -99.90      -99.90      -99.90      -99.90      -99.90    
       -99.90      -99.90      -99.90      -99.90      -99.90      -99.90      -99.90      -99.90      -99.90      -99.90    
       -99.90      -99.90      -99.90      -99.90      -99.90      -99.90      -99.90      -99.90      -99.90      -99.90    
  17   -99.90      -99.90      -99.90      -99.90      -99.90      -99.90      -99.90      -99.90      -99.90      -99.90    
       -99.90      -99.90      -99.90      -99.90      -99.90      -99.90      -99.90      -99.90      -99.90      -99.90    
       -99.90      -99.90      -99.90      -99.90      -99.90      -99.90      -99.90      -99.90      -99.90      -99.90    
       -99.90      -99.90      -99.90      -99.90      -99.90      -99.90      -99.90      -99.90      -99.90      -99.90    
  18   -99.90      -99.90      -99.90      -99.90      -99.90      -99.90      -99.90      -99.90      -99.90      -99.90    
       -99.90      -99.90      -99.90      -99.90      -99.90      -99.90      -99.90      -99.90      -99.90      -99.90    
       -99.90      -99.90      -99.90      -99.90      -99.90      -99.90      -99.90      -99.90      -99.90      -99.90    
       -99.90      -99.90      -99.90      -99.90      -99.90      -99.90      -99.90      -99.90      -99.90      -99.90    
  19   -99.90      -99.90      -99.90      -99.90      -99.90      -99.90      -99.90      -99.90      -99.90      -99.90    
       -99.90      -99.90      -99.90      -99.90      -99.90      -99.90      -99.90      -99.90      -99.90      -99.90    
       -99.90      -99.90      -99.90      -99.90      -99.90      -99.90      -99.90      -99.90      -99.90      -99.90    
       -99.90      -99.90      -99.90      -99.90      -99.90      -99.90      -99.90      -99.90      -99.90      -99.90    
  20   -99.90      -99.90      -99.90      -99.90      -99.90      -99.90      -99.90      -99.90      -99.90      -99.90    
       -99.90      -99.90      -99.90      -99.90      -99.90      -99.90      -99.90      -99.90      -99.90      -99.90    
       -99.90      -99.90      -99.90      -99.90      -99.90      -99.90      -99.90      -99.90      -99.90      -99.90    
       -99.90      -99.90      -99.90      -99.90      -99.90      -99.90      -99.90      -99.90      -99.90      -99.90    
  21   -99.90      -99.90      -99.90      -99.90      -99.90      -99.90      -99.90      -99.90      -99.90      -99.90    
       -99.90      -99.90      -99.90      -99.90      -99.90      -99.90      -99.90      -99.90      -99.90      -99.90    
       -99.90      -99.90      -99.90      -99.90      -99.90      -99.90      -99.90      -99.90      -99.90      -99.90    
       -99.90      -99.90      -99.90      -99.90      -99.90      -99.90      -99.90      -99.90      -99.90      -99.90    
  22   -99.90      -99.90      -99.90      -99.90      -99.90      -99.90      -99.90      -99.90      -99.90      -99.90    
       -99.90      -99.90      -99.90      -99.90      -99.90      -99.90      -99.90      -99.90      -99.90      -99.90    
       -99.90      -99.90      -99.90      -99.90      -99.90      -99.90      -99.90      -99.90      -99.90      -99.90    
       -99.90      -99.90      -99.90      -99.90      -99.90      -99.90      -99.90      -99.90      -99.90      -99.90    
  23   -99.90      -99.90      -99.90      -99.90      -99.90      -99.90      -99.90      -99.90      -99.90      -99.90    
       -99.90      -99.90      -99.90      -99.90      -99.90      -99.90      -99.90      -99.90      -99.90      -99.90    
       -99.90      -99.90      -99.90      -99.90      -99.90      -99.90      -99.90      -99.90      -99.90      -99.90    
       -99.90      -99.90      -99.90      -99.90      -99.90      -99.90      -99.90      -99.90      -99.90      -99.90    
  24   -99.90      -99.90      -99.90      -99.90      -99.90      -99.90      -99.90      -99.90      -99.90      -99.90    
       -99.90      -99.90      -99.90      -99.90      -99.90      -99.90      -99.90      -99.90      -99.90      -99.90    
       -99.90      -99.90      -99.90      -99.90      -99.90      -99.90      -99.90      -99.90      -99.90      -99.90    
       -99.90      -99.90      -99.90      -99.90      -99.90      -99.90      -99.90      -99.90      -99.90      -99.90    
  25   -99.90      -99.90      -99.90      -99.90      -99.90      -99.90      -99.90      -99.90      -99.90      -99.90    
       -99.90      -99.90      -99.90      -99.90      -99.90      -99.90      -99.90      -99.90      -99.90      -99.90    
       -99.90      -99.90      -99.90      -99.90      -99.90      -99.90      -99.90      -99.90      -99.90      -99.90    
       -99.90      -99.90      -99.90      -99.90      -99.90      -99.90      -99.90      -99.90      -99.90      -99.90    
  26   -99.90      -99.90      -99.90      -99.90      -99.90      -99.90      -99.90      -99.90      -99.90      -99.90    
       -99.90      -99.90      -99.90      -99.90      -99.90      -99.90      -99.90      -99.90      -99.90      -99.90    
       -99.90      -99.90      -99.90      -99.90      -99.90      -99.90      -99.90      -99.90      -99.90      -99.90    
       -99.90      -99.90      -99.90      -99.90      -99.90      -99.90      -99.90      -99.90      -99.90      -99.90    
  27   -99.90      -99.90      -99.90      -99.90      -99.90      -99.90      -99.90      -99.90      -99.90      -99.90    
       -99.90      -99.90      -99.90      -99.90      -99.90      -99.90      -99.90      -99.90      -99.90      -99.90    
       -99.90      -99.90      -99.90      -99.90      -99.90      -99.90      -99.90      -99.90      -99.90      -99.90    
       -99.90      -99.90      -99.90      -99.90      -99.90      -99.90      -99.90      -99.90      -99.90      -99.90    
  28   -99.90      -99.90      -99.90      -99.90      -99.90      -99.90      -99.90      -99.90      -99.90      -99.90    
       -99.90      -99.90      -99.90      -99.90      -99.90      -99.90      -99.90      -99.90      -99.90      -99.90    
       -99.90      -99.90      -99.90      -99.90      -99.90      -99.90      -99.90      -99.90      -99.90      -99.90    
       -99.90      -99.90      -99.90      -99.90      -99.90      -99.90      -99.90      -99.90      -99.90      -99.90    
  29   -99.90      -99.90      -99.90      -99.90      -99.90      -99.90      -99.90      -99.90      -99.90      -99.90    
       -99.90      -99.90      -99.90      -99.90      -99.90      -99.90      -99.90      -99.90      -99.90      -99.90    
       -99.90      -99.90      -99.90      -99.90      -99.90      -99.90      -99.90      -99.90      -99.90      -99.90    
       -99.90      -99.90      -99.90      -99.90      -99.90      -99.90      -99.90      -99.90      -99.90      -99.90    
  30   -99.90      -99.90      -99.90      -99.90      -99.90      -99.90      -99.90      -99.90      -99.90      -99.90    
       -99.90      -99.90      -99.90      -99.90      -99.90      -99.90      -99.90      -99.90      -99.90      -99.90    
       -99.90      -99.90      -99.90      -99.90      -99.90      -99.90      -99.90      -99.90      -99.90      -99.90    
       -99.90      -99.90      -99.90      -99.90      -99.90      -99.90      -99.90      -99.90      -99.90      -99.90    
  31   -99.90      -99.90      -99.90      -99.90      -99.90      -99.90      -99.90      -99.90      -99.90      -99.90    
       -99.90      -99.90      -99.90      -99.90      -99.90      -99.90      -99.90      -99.90      -99.90      -99.90    
       -99.90      -99.90      -99.90      -99.90      -99.90      -99.90      -99.90      -99.90      -99.90      -99.90    
       -99.90      -99.90      -99.90      -99.90      -99.90      -99.90      -99.90      -99.90      -99.90      -99.90    
  32   -99.90      -99.90      -99.90      -99.90      -99.90      -99.90      -99.90      -99.90      -99.90      -99.90    
       -99.90      -99.90      -99.90      -99.90      -99.90      -99.90      -99.90      -99.90      -99.90      -99.90    
       -99.90      -99.90      -99.90      -99.90      -99.90      -99.90      -99.90      -99.90      -99.90      -99.90    
       -99.90      -99.90      -99.90      -99.90      -99.90      -99.90      -99.90      -99.90      -99.90      -99.90    
  33   -99.90      -99.90      -99.90      -99.90      -99.90      -99.90      -99.90      -99.90      -99.90      -99.90    
       -99.90      -99.90      -99.90      -99.90      -99.90      -99.90      -99.90      -99.90      -99.90      -99.90    
       -99.90      -99.90      -99.90      -99.90      -99.90      -99.90      -99.90      -99.90      -99.90      -99.90    
       -99.90      -99.90      -99.90      -99.90      -99.90      -99.90      -99.90      -99.90      -99.90      -99.90    
  34   -99.90      -99.90      -99.90      -99.90      -99.90      -99.90      -99.90      -99.90      -99.90      -99.90    
       -99.90      -99.90      -99.90      -99.90      -99.90      -99.90      -99.90      -99.90      -99.90      -99.90    
       -99.90      -99.90      -99.90      -99.90      -99.90      -99.90      -99.90      -99.90      -99.90      -99.90    
       -99.90      -99.90      -99.90      -99.90      -99.90      -99.90      -99.90      -99.90      -99.90      -99.90    
  35   -99.90      -99.90      -99.90      -99.90      -99.90      -99.90      -99.90      -99.90      -99.90      -99.90    
       -99.90      -99.90      -99.90      -99.90      -99.90      -99.90      -99.90      -99.90      -99.90      -99.90    
       -99.90      -99.90      -99.90      -99.90      -99.90      -99.90      -99.90      -99.90      -99.90      -99.90    
       -99.90      -99.90      -99.90      -99.90      -99.90      -99.90      -99.90      -99.90      -99.90      -99.90    
  36   -99.90      -99.90      -99.90      -99.90      -99.90      -99.90      -99.90      -99.90      -99.90      -99.90    
       -99.90      -99.90      -99.90      -99.90      -99.90      -99.90      -99.90      -99.90      -99.90      -99.90    
       -99.90      -99.90      -99.90      -99.90      -99.90      -99.90      -99.90      -99.90      -99.90      -99.90    
       -99.90      -99.90      -99.90      -99.90      -99.90      -99.90      -99.90      -99.90      -99.90      -99.90    
  37   -99.90      -99.90      -99.90      -99.90      -99.90      -99.90      -99.90      -99.90      -99.90      -99.90    
       -99.90      -99.90      -99.90      -99.90      -99.90      -99.90      -99.90      -99.90      -99.90      -99.90    
       -99.90      -99.90      -99.90      -99.90      -99.90      -99.90      -99.90      -99.90      -99.90      -99.90    
       -99.90      -99.90      -99.90      -99.90      -99.90      -99.90      -99.90      -99.90      -99.90      -99.90    
  38   -99.90      -99.90      -99.90      -99.90      -99.90      -99.90      -99.90      -99.90      -99.90      -99.90    
       -99.90      -99.90      -99.90      -99.90      -99.90      -99.90      -99.90      -99.90      -99.90      -99.90    
       -99.90      -99.90      -99.90      -99.90      -99.90      -99.90      -99.90      -99.90      -99.90      -99.90    
       -99.90      -99.90      -99.90      -99.90      -99.90      -99.90      -99.90      -99.90      -99.90      -99.90    
  39   -99.90      -99.90      -99.90      -99.90      -99.90      -99.90      -99.90      -99.90      -99.90      -99.90    
       -99.90      -99.90      -99.90      -99.90      -99.90      -99.90      -99.90      -99.90      -99.90      -99.90    
       -99.90      -99.90      -99.90      -99.90      -99.90      -99.90      -99.90      -99.90      -99.90      -99.90    
       -99.90      -99.90      -99.90      -99.90      -99.90      -99.90      -99.90      -99.90      -99.90      -99.90    
  40   -99.90      -99.90      -99.90      -99.90      -99.90      -99.90      -99.90      -99.90      -99.90      -99.90    
       -99.90      -99.90      -99.90      -99.90      -99.90      -99.90      -99.90      -99.90      -99.90      -99.90    
       -99.90      -99.90      -99.90      -99.90      -99.90      -99.90      -99.90      -99.90      -99.90      -99.90    
       -99.90      -99.90      -99.90      -99.90      -99.90      -99.90      -99.90      -99.90      -99.90      -99.90    
1
              HEAD IN LAYER   5 AT END OF TIME STEP   2 IN STRESS PERIOD    3
  ---------------------------------------------------------------------------

            1           2           3           4           5           6           7           8           9          10
           11          12          13          14          15          16          17          18          19          20
           21          22          23          24          25          26          27          28          29          30
           31          32          33          34          35          36          37          38          39          40
 ........................................................................................................................
   1    50.06       48.67      -99.90      -99.90      -99.90      -99.90      -99.90      -99.90      -99.90      -99.90    
       -99.90      -99.90      -99.90      -99.90      -99.90      -99.90      -99.90      -99.90      -99.90      -99.90    
       -99.90      -99.90      -99.90      -99.90      -99.90      -99.90      -99.90      -99.90      -99.90      -99.90    
       -99.90      -99.90      -99.90      -99.90      -99.90      -99.90      -99.90      -99.90      -99.90      -99.90    
   2    48.67       47.48      -99.90      -99.90      -99.90      -99.90      -99.90      -99.90      -99.90      -99.90    
       -99.90      -99.90      -99.90      -99.90      -99.90      -99.90      -99.90      -99.90      -99.90      -99.90    
       -99.90      -99.90      -99.90      -99.90      -99.90      -99.90      -99.90      -99.90      -99.90      -99.90    
       -99.90      -99.90      -99.90      -99.90      -99.90      -99.90      -99.90      -99.90      -99.90      -99.90    
   3   -99.90      -99.90      -99.90      -99.90      -99.90      -99.90      -99.90      -99.90      -99.90      -99.90    
       -99.90      -99.90      -99.90      -99.90      -99.90      -99.90      -99.90      -99.90      -99.90      -99.90    
       -99.90      -99.90      -99.90      -99.90      -99.90      -99.90      -99.90      -99.90      -99.90      -99.90    
       -99.90      -99.90      -99.90      -99.90      -99.90      -99.90      -99.90      -99.90      -99.90      -99.90    
   4   -99.90      -99.90      -99.90      -99.90      -99.90      -99.90      -99.90      -99.90      -99.90      -99.90    
       -99.90      -99.90      -99.90      -99.90      -99.90      -99.90      -99.90      -99.90      -99.90      -99.90    
       -99.90      -99.90      -99.90      -99.90      -99.90      -99.90      -99.90      -99.90      -99.90      -99.90    
       -99.90      -99.90      -99.90      -99.90      -99.90      -99.90      -99.90      -99.90      -99.90      -99.90    
   5   -99.90      -99.90      -99.90      -99.90      -99.90      -99.90      -99.90      -99.90      -99.90      -99.90    
       -99.90      -99.90      -99.90      -99.90      -99.90      -99.90      -99.90      -99.90      -99.90      -99.90    
       -99.90      -99.90      -99.90      -99.90      -99.90      -99.90      -99.90      -99.90      -99.90      -99.90    
       -99.90      -99.90      -99.90      -99.90      -99.90      -99.90      -99.90      -99.90      -99.90      -99.90    
   6   -99.90      -99.90      -99.90      -99.90      -99.90      -99.90      -99.90      -99.90      -99.90      -99.90    
       -99.90      -99.90      -99.90      -99.90      -99.90      -99.90      -99.90      -99.90      -99.90      -99.90    
       -99.90      -99.90      -99.90      -99.90      -99.90      -99.90      -99.90      -99.90      -99.90      -99.90    
       -99.90      -99.90      -99.90      -99.90      -99.90      -99.90      -99.90      -99.90      -99.90      -99.90    
   7   -99.90      -99.90      -99.90      -99.90      -99.90      -99.90      -99.90      -99.90      -99.90      -99.90    
       -99.90      -99.90      -99.90      -99.90      -99.90      -99.90      -99.90      -99.90      -99.90      -99.90    
       -99.90      -99.90      -99.90      -99.90      -99.90      -99.90      -99.90      -99.90      -99.90      -99.90    
       -99.90      -99.90      -99.90      -99.90      -99.90      -99.90      -99.90      -99.90      -99.90      -99.90    
   8   -99.90      -99.90      -99.90      -99.90      -99.90      -99.90      -99.90      -99.90      -99.90      -99.90    
       -99.90      -99.90      -99.90      -99.90      -99.90      -99.90      -99.90      -99.90      -99.90      -99.90    
       -99.90      -99.90      -99.90      -99.90      -99.90      -99.90      -99.90      -99.90      -99.90      -99.90    
       -99.90      -99.90      -99.90      -99.90      -99.90      -99.90      -99.90      -99.90      -99.90      -99.90    
   9   -99.90      -99.90      -99.90      -99.90      -99.90      -99.90      -99.90      -99.90      -99.90      -99.90    
       -99.90      -99.90      -99.90      -99.90      -99.90      -99.90      -99.90      -99.90      -99.90      -99.90    
       -99.90      -99.90      -99.90      -99.90      -99.90      -99.90      -99.90      -99.90      -99.90      -99.90    
       -99.90      -99.90      -99.90      -99.90      -99.90      -99.90      -99.90      -99.90      -99.90      -99.90    
  10   -99.90      -99.90      -99.90      -99.90      -99.90      -99.90      -99.90      -99.90      -99.90      -99.90    
       -99.90      -99.90      -99.90      -99.90      -99.90      -99.90      -99.90      -99.90      -99.90      -99.90    
       -99.90      -99.90      -99.90      -99.90      -99.90      -99.90      -99.90      -99.90      -99.90      -99.90    
       -99.90      -99.90      -99.90      -99.90      -99.90      -99.90      -99.90      -99.90      -99.90      -99.90    
  11   -99.90      -99.90      -99.90      -99.90      -99.90      -99.90      -99.90      -99.90      -99.90      -99.90    
       -99.90      -99.90      -99.90      -99.90      -99.90      -99.90      -99.90      -99.90      -99.90      -99.90    
       -99.90      -99.90      -99.90      -99.90      -99.90      -99.90      -99.90      -99.90      -99.90      -99.90    
       -99.90      -99.90      -99.90      -99.90      -99.90      -99.90      -99.90      -99.90      -99.90      -99.90    
  12   -99.90      -99.90      -99.90      -99.90      -99.90      -99.90      -99.90      -99.90      -99.90      -99.90    
       -99.90      -99.90      -99.90      -99.90      -99.90      -99.90      -99.90      -99.90      -99.90      -99.90    
       -99.90      -99.90      -99.90      -99.90      -99.90      -99.90      -99.90      -99.90      -99.90      -99.90    
       -99.90      -99.90      -99.90      -99.90      -99.90      -99.90      -99.90      -99.90      -99.90      -99.90    
  13   -99.90      -99.90      -99.90      -99.90      -99.90      -99.90      -99.90      -99.90      -99.90      -99.90    
       -99.90      -99.90      -99.90      -99.90      -99.90      -99.90      -99.90      -99.90      -99.90      -99.90    
       -99.90      -99.90      -99.90      -99.90      -99.90      -99.90      -99.90      -99.90      -99.90      -99.90    
       -99.90      -99.90      -99.90      -99.90      -99.90      -99.90      -99.90      -99.90      -99.90      -99.90    
  14   -99.90      -99.90      -99.90      -99.90      -99.90      -99.90      -99.90      -99.90      -99.90      -99.90    
       -99.90      -99.90      -99.90      -99.90      -99.90      -99.90      -99.90      -99.90      -99.90      -99.90    
       -99.90      -99.90      -99.90      -99.90      -99.90      -99.90      -99.90      -99.90      -99.90      -99.90    
       -99.90      -99.90      -99.90      -99.90      -99.90      -99.90      -99.90      -99.90      -99.90      -99.90    
  15   -99.90      -99.90      -99.90      -99.90      -99.90      -99.90      -99.90      -99.90      -99.90      -99.90    
       -99.90      -99.90      -99.90      -99.90      -99.90      -99.90      -99.90      -99.90      -99.90      -99.90    
       -99.90      -99.90      -99.90      -99.90      -99.90      -99.90      -99.90      -99.90      -99.90      -99.90    
       -99.90      -99.90      -99.90      -99.90      -99.90      -99.90      -99.90      -99.90      -99.90      -99.90    
  16   -99.90      -99.90      -99.90      -99.90      -99.90      -99.90      -99.90      -99.90      -99.90      -99.90    
       -99.90      -99.90      -99.90      -99.90      -99.90      -99.90      -99.90      -99.90      -99.90      -99.90    
       -99.90      -99.90      -99.90      -99.90      -99.90      -99.90      -99.90      -99.90      -99.90      -99.90    
       -99.90      -99.90      -99.90      -99.90      -99.90      -99.90      -99.90      -99.90      -99.90      -99.90    
  17   -99.90      -99.90      -99.90      -99.90      -99.90      -99.90      -99.90      -99.90      -99.90      -99.90    
       -99.90      -99.90      -99.90      -99.90      -99.90      -99.90      -99.90      -99.90      -99.90      -99.90    
       -99.90      -99.90      -99.90      -99.90      -99.90      -99.90      -99.90      -99.90      -99.90      -99.90    
       -99.90      -99.90      -99.90      -99.90      -99.90      -99.90      -99.90      -99.90      -99.90      -99.90    
  18   -99.90      -99.90      -99.90      -99.90      -99.90      -99.90      -99.90      -99.90      -99.90      -99.90    
       -99.90      -99.90      -99.90      -99.90      -99.90      -99.90      -99.90      -99.90      -99.90      -99.90    
       -99.90      -99.90      -99.90      -99.90      -99.90      -99.90      -99.90      -99.90      -99.90      -99.90    
       -99.90      -99.90      -99.90      -99.90      -99.90      -99.90      -99.90      -99.90      -99.90      -99.90    
  19   -99.90      -99.90      -99.90      -99.90      -99.90      -99.90      -99.90      -99.90      -99.90      -99.90    
       -99.90      -99.90      -99.90      -99.90      -99.90      -99.90      -99.90      -99.90      -99.90      -99.90    
       -99.90      -99.90      -99.90      -99.90      -99.90      -99.90      -99.90      -99.90      -99.90      -99.90    
       -99.90      -99.90      -99.90      -99.90      -99.90      -99.90      -99.90      -99.90      -99.90      -99.90    
  20   -99.90      -99.90      -99.90      -99.90      -99.90      -99.90      -99.90      -99.90      -99.90      -99.90    
       -99.90      -99.90      -99.90      -99.90      -99.90      -99.90      -99.90      -99.90      -99.90      -99.90    
       -99.90      -99.90      -99.90      -99.90      -99.90      -99.90      -99.90      -99.90      -99.90      -99.90    
       -99.90      -99.90      -99.90      -99.90      -99.90      -99.90      -99.90      -99.90      -99.90      -99.90    
  21   -99.90      -99.90      -99.90      -99.90      -99.90      -99.90      -99.90      -99.90      -99.90      -99.90    
       -99.90      -99.90      -99.90      -99.90      -99.90      -99.90      -99.90      -99.90      -99.90      -99.90    
       -99.90      -99.90      -99.90      -99.90      -99.90      -99.90      -99.90      -99.90      -99.90      -99.90    
       -99.90      -99.90      -99.90      -99.90      -99.90      -99.90      -99.90      -99.90      -99.90      -99.90    
  22   -99.90      -99.90      -99.90      -99.90      -99.90      -99.90      -99.90      -99.90      -99.90      -99.90    
       -99.90      -99.90      -99.90      -99.90      -99.90      -99.90      -99.90      -99.90      -99.90      -99.90    
       -99.90      -99.90      -99.90      -99.90      -99.90      -99.90      -99.90      -99.90      -99.90      -99.90    
       -99.90      -99.90      -99.90      -99.90      -99.90      -99.90      -99.90      -99.90      -99.90      -99.90    
  23   -99.90      -99.90      -99.90      -99.90      -99.90      -99.90      -99.90      -99.90      -99.90      -99.90    
       -99.90      -99.90      -99.90      -99.90      -99.90      -99.90      -99.90      -99.90      -99.90      -99.90    
       -99.90      -99.90      -99.90      -99.90      -99.90      -99.90      -99.90      -99.90      -99.90      -99.90    
       -99.90      -99.90      -99.90      -99.90      -99.90      -99.90      -99.90      -99.90      -99.90      -99.90    
  24   -99.90      -99.90      -99.90      -99.90      -99.90      -99.90      -99.90      -99.90      -99.90      -99.90    
       -99.90      -99.90      -99.90      -99.90      -99.90      -99.90      -99.90      -99.90      -99.90      -99.90    
       -99.90      -99.90      -99.90      -99.90      -99.90      -99.90      -99.90      -99.90      -99.90      -99.90    
       -99.90      -99.90      -99.90      -99.90      -99.90      -99.90      -99.90      -99.90      -99.90      -99.90    
  25   -99.90      -99.90      -99.90      -99.90      -99.90      -99.90      -99.90      -99.90      -99.90      -99.90    
       -99.90      -99.90      -99.90      -99.90      -99.90      -99.90      -99.90      -99.90      -99.90      -99.90    
       -99.90      -99.90      -99.90      -99.90      -99.90      -99.90      -99.90      -99.90      -99.90      -99.90    
       -99.90      -99.90      -99.90      -99.90      -99.90      -99.90      -99.90      -99.90      -99.90      -99.90    
  26   -99.90      -99.90      -99.90      -99.90      -99.90      -99.90      -99.90      -99.90      -99.90      -99.90    
       -99.90      -99.90      -99.90      -99.90      -99.90      -99.90      -99.90      -99.90      -99.90      -99.90    
       -99.90      -99.90      -99.90      -99.90      -99.90      -99.90      -99.90      -99.90      -99.90      -99.90    
       -99.90      -99.90      -99.90      -99.90      -99.90      -99.90      -99.90      -99.90      -99.90      -99.90    
  27   -99.90      -99.90      -99.90      -99.90      -99.90      -99.90      -99.90      -99.90      -99.90      -99.90    
       -99.90      -99.90      -99.90      -99.90      -99.90      -99.90      -99.90      -99.90      -99.90      -99.90    
       -99.90      -99.90      -99.90      -99.90      -99.90      -99.90      -99.90      -99.90      -99.90      -99.90    
       -99.90      -99.90      -99.90      -99.90      -99.90      -99.90      -99.90      -99.90      -99.90      -99.90    
  28   -99.90      -99.90      -99.90      -99.90      -99.90      -99.90      -99.90      -99.90      -99.90      -99.90    
       -99.90      -99.90      -99.90      -99.90      -99.90      -99.90      -99.90      -99.90      -99.90      -99.90    
       -99.90      -99.90      -99.90      -99.90      -99.90      -99.90      -99.90      -99.90      -99.90      -99.90    
       -99.90      -99.90      -99.90      -99.90      -99.90      -99.90      -99.90      -99.90      -99.90      -99.90    
  29   -99.90      -99.90      -99.90      -99.90      -99.90      -99.90      -99.90      -99.90      -99.90      -99.90    
       -99.90      -99.90      -99.90      -99.90      -99.90      -99.90      -99.90      -99.90      -99.90      -99.90    
       -99.90      -99.90      -99.90      -99.90      -99.90      -99.90      -99.90      -99.90      -99.90      -99.90    
       -99.90      -99.90      -99.90      -99.90      -99.90      -99.90      -99.90      -99.90      -99.90      -99.90    
  30   -99.90      -99.90      -99.90      -99.90      -99.90      -99.90      -99.90      -99.90      -99.90      -99.90    
       -99.90      -99.90      -99.90      -99.90      -99.90      -99.90      -99.90      -99.90      -99.90      -99.90    
       -99.90      -99.90      -99.90      -99.90      -99.90      -99.90      -99.90      -99.90      -99.90      -99.90    
       -99.90      -99.90      -99.90      -99.90      -99.90      -99.90      -99.90      -99.90      -99.90      -99.90    
  31   -99.90      -99.90      -99.90      -99.90      -99.90      -99.90      -99.90      -99.90      -99.90      -99.90    
       -99.90      -99.90      -99.90      -99.90      -99.90      -99.90      -99.90      -99.90      -99.90      -99.90    
       -99.90      -99.90      -99.90      -99.90      -99.90      -99.90      -99.90      -99.90      -99.90      -99.90    
       -99.90      -99.90      -99.90      -99.90      -99.90      -99.90      -99.90      -99.90      -99.90      -99.90    
  32   -99.90      -99.90      -99.90      -99.90      -99.90      -99.90      -99.90      -99.90      -99.90      -99.90    
       -99.90      -99.90      -99.90      -99.90      -99.90      -99.90      -99.90      -99.90      -99.90      -99.90    
       -99.90      -99.90      -99.90      -99.90      -99.90      -99.90      -99.90      -99.90      -99.90      -99.90    
       -99.90      -99.90      -99.90      -99.90      -99.90      -99.90      -99.90      -99.90      -99.90      -99.90    
  33   -99.90      -99.90      -99.90      -99.90      -99.90      -99.90      -99.90      -99.90      -99.90      -99.90    
       -99.90      -99.90      -99.90      -99.90      -99.90      -99.90      -99.90      -99.90      -99.90      -99.90    
       -99.90      -99.90      -99.90      -99.90      -99.90      -99.90      -99.90      -99.90      -99.90      -99.90    
       -99.90      -99.90      -99.90      -99.90      -99.90      -99.90      -99.90      -99.90      -99.90      -99.90    
  34   -99.90      -99.90      -99.90      -99.90      -99.90      -99.90      -99.90      -99.90      -99.90      -99.90    
       -99.90      -99.90      -99.90      -99.90      -99.90      -99.90      -99.90      -99.90      -99.90      -99.90    
       -99.90      -99.90      -99.90      -99.90      -99.90      -99.90      -99.90      -99.90      -99.90      -99.90    
       -99.90      -99.90      -99.90      -99.90      -99.90      -99.90      -99.90      -99.90      -99.90      -99.90    
  35   -99.90      -99.90      -99.90      -99.90      -99.90      -99.90      -99.90      -99.90      -99.90      -99.90    
       -99.90      -99.90      -99.90      -99.90      -99.90      -99.90      -99.90      -99.90      -99.90      -99.90    
       -99.90      -99.90      -99.90      -99.90      -99.90      -99.90      -99.90      -99.90      -99.90      -99.90    
       -99.90      -99.90      -99.90      -99.90      -99.90      -99.90      -99.90      -99.90      -99.90      -99.90    
  36   -99.90      -99.90      -99.90      -99.90      -99.90      -99.90      -99.90      -99.90      -99.90      -99.90    
       -99.90      -99.90      -99.90      -99.90      -99.90      -99.90      -99.90      -99.90      -99.90      -99.90    
       -99.90      -99.90      -99.90      -99.90      -99.90      -99.90      -99.90      -99.90      -99.90      -99.90    
       -99.90      -99.90      -99.90      -99.90      -99.90      -99.90      -99.90      -99.90      -99.90      -99.90    
  37   -99.90      -99.90      -99.90      -99.90      -99.90      -99.90      -99.90      -99.90      -99.90      -99.90    
       -99.90      -99.90      -99.90      -99.90      -99.90      -99.90      -99.90      -99.90      -99.90      -99.90    
       -99.90      -99.90      -99.90      -99.90      -99.90      -99.90      -99.90      -99.90      -99.90      -99.90    
       -99.90      -99.90      -99.90      -99.90      -99.90      -99.90      -99.90      -99.90      -99.90      -99.90    
  38   -99.90      -99.90      -99.90      -99.90      -99.90      -99.90      -99.90      -99.90      -99.90      -99.90    
       -99.90      -99.90      -99.90      -99.90      -99.90      -99.90      -99.90      -99.90      -99.90      -99.90    
       -99.90      -99.90      -99.90      -99.90      -99.90      -99.90      -99.90      -99.90      -99.90      -99.90    
       -99.90      -99.90      -99.90      -99.90      -99.90      -99.90      -99.90      -99.90      -99.90      -99.90    
  39   -99.90      -99.90      -99.90      -99.90      -99.90      -99.90      -99.90      -99.90      -99.90      -99.90    
       -99.90      -99.90      -99.90      -99.90      -99.90      -99.90      -99.90      -99.90      -99.90      -99.90    
       -99.90      -99.90      -99.90      -99.90      -99.90      -99.90      -99.90      -99.90      -99.90      -99.90    
       -99.90      -99.90      -99.90      -99.90      -99.90      -99.90      -99.90      -99.90      -99.90      -99.90    
  40   -99.90      -99.90      -99.90      -99.90      -99.90      -99.90      -99.90      -99.90      -99.90      -99.90    
       -99.90      -99.90      -99.90      -99.90      -99.90      -99.90      -99.90      -99.90      -99.90      -99.90    
       -99.90      -99.90      -99.90      -99.90      -99.90      -99.90      -99.90      -99.90      -99.90      -99.90    
       -99.90      -99.90      -99.90      -99.90      -99.90      -99.90      -99.90      -99.90      -99.90      -99.90    
1
              HEAD IN LAYER   6 AT END OF TIME STEP   2 IN STRESS PERIOD    3
  ---------------------------------------------------------------------------

            1           2           3           4           5           6           7           8           9          10
           11          12          13          14          15          16          17          18          19          20
           21          22          23          24          25          26          27          28          29          30
           31          32          33          34          35          36          37          38          39          40
 ........................................................................................................................
   1    49.15       47.67       41.65      -99.90      -99.90      -99.90      -99.90      -99.90      -99.90      -99.90    
       -99.90      -99.90      -99.90      -99.90      -99.90      -99.90      -99.90      -99.90      -99.90      -99.90    
       -99.90      -99.90      -99.90      -99.90      -99.90      -99.90      -99.90      -99.90      -99.90      -99.90    
       -99.90      -99.90      -99.90      -99.90      -99.90      -99.90      -99.90      -99.90      -99.90      -99.90    
   2    47.67       46.45       40.53      -99.90      -99.90      -99.90      -99.90      -99.90      -99.90      -99.90    
       -99.90      -99.90      -99.90      -99.90      -99.90      -99.90      -99.90      -99.90      -99.90      -99.90    
       -99.90      -99.90      -99.90      -99.90      -99.90      -99.90      -99.90      -99.90      -99.90      -99.90    
       -99.90      -99.90      -99.90      -99.90      -99.90      -99.90      -99.90      -99.90      -99.90      -99.90    
   3    41.65       40.53      -99.90      -99.90      -99.90      -99.90      -99.90      -99.90      -99.90      -99.90    
       -99.90      -99.90      -99.90      -99.90      -99.90      -99.90      -99.90      -99.90      -99.90      -99.90    
       -99.90      -99.90      -99.90      -99.90      -99.90      -99.90      -99.90      -99.90      -99.90      -99.90    
       -99.90      -99.90      -99.90      -99.90      -99.90      -99.90      -99.90      -99.90      -99.90      -99.90    
   4   -99.90      -99.90      -99.90      -99.90      -99.90      -99.90      -99.90      -99.90      -99.90      -99.90    
       -99.90      -99.90      -99.90      -99.90      -99.90      -99.90      -99.90      -99.90      -99.90      -99.90    
       -99.90      -99.90      -99.90      -99.90      -99.90      -99.90      -99.90      -99.90      -99.90      -99.90    
       -99.90      -99.90      -99.90      -99.90      -99.90      -99.90      -99.90      -99.90      -99.90      -99.90    
   5   -99.90      -99.90      -99.90      -99.90      -99.90      -99.90      -99.90      -99.90      -99.90      -99.90    
       -99.90      -99.90      -99.90      -99.90      -99.90      -99.90      -99.90      -99.90      -99.90      -99.90    
       -99.90      -99.90      -99.90      -99.90      -99.90      -99.90      -99.90      -99.90      -99.90      -99.90    
       -99.90      -99.90      -99.90      -99.90      -99.90      -99.90      -99.90      -99.90      -99.90      -99.90    
   6   -99.90      -99.90      -99.90      -99.90      -99.90      -99.90      -99.90      -99.90      -99.90      -99.90    
       -99.90      -99.90      -99.90      -99.90      -99.90      -99.90      -99.90      -99.90      -99.90      -99.90    
       -99.90      -99.90      -99.90      -99.90      -99.90      -99.90      -99.90      -99.90      -99.90      -99.90    
       -99.90      -99.90      -99.90      -99.90      -99.90      -99.90      -99.90      -99.90      -99.90      -99.90    
   7   -99.90      -99.90      -99.90      -99.90      -99.90      -99.90      -99.90      -99.90      -99.90      -99.90    
       -99.90      -99.90      -99.90      -99.90      -99.90      -99.90      -99.90      -99.90      -99.90      -99.90    
       -99.90      -99.90      -99.90      -99.90      -99.90      -99.90      -99.90      -99.90      -99.90      -99.90    
       -99.90      -99.90      -99.90      -99.90      -99.90      -99.90      -99.90      -99.90      -99.90      -99.90    
   8   -99.90      -99.90      -99.90      -99.90      -99.90      -99.90      -99.90      -99.90      -99.90      -99.90    
       -99.90      -99.90      -99.90      -99.90      -99.90      -99.90      -99.90      -99.90      -99.90      -99.90    
       -99.90      -99.90      -99.90      -99.90      -99.90      -99.90      -99.90      -99.90      -99.90      -99.90    
       -99.90      -99.90      -99.90      -99.90      -99.90      -99.90      -99.90      -99.90      -99.90      -99.90    
   9   -99.90      -99.90      -99.90      -99.90      -99.90      -99.90      -99.90      -99.90      -99.90      -99.90    
       -99.90      -99.90      -99.90      -99.90      -99.90      -99.90      -99.90      -99.90      -99.90      -99.90    
       -99.90      -99.90      -99.90      -99.90      -99.90      -99.90      -99.90      -99.90      -99.90      -99.90    
       -99.90      -99.90      -99.90      -99.90      -99.90      -99.90      -99.90      -99.90      -99.90      -99.90    
  10   -99.90      -99.90      -99.90      -99.90      -99.90      -99.90      -99.90      -99.90      -99.90      -99.90    
       -99.90      -99.90      -99.90      -99.90      -99.90      -99.90      -99.90      -99.90      -99.90      -99.90    
       -99.90      -99.90      -99.90      -99.90      -99.90      -99.90      -99.90      -99.90      -99.90      -99.90    
       -99.90      -99.90      -99.90      -99.90      -99.90      -99.90      -99.90      -99.90      -99.90      -99.90    
  11   -99.90      -99.90      -99.90      -99.90      -99.90      -99.90      -99.90      -99.90      -99.90      -99.90    
       -99.90      -99.90      -99.90      -99.90      -99.90      -99.90      -99.90      -99.90      -99.90      -99.90    
       -99.90      -99.90      -99.90      -99.90      -99.90      -99.90      -99.90      -99.90      -99.90      -99.90    
       -99.90      -99.90      -99.90      -99.90      -99.90      -99.90      -99.90      -99.90      -99.90      -99.90    
  12   -99.90      -99.90      -99.90      -99.90      -99.90      -99.90      -99.90      -99.90      -99.90      -99.90    
       -99.90      -99.90      -99.90      -99.90      -99.90      -99.90      -99.90      -99.90      -99.90      -99.90    
       -99.90      -99.90      -99.90      -99.90      -99.90      -99.90      -99.90      -99.90      -99.90      -99.90    
       -99.90      -99.90      -99.90      -99.90      -99.90      -99.90      -99.90      -99.90      -99.90      -99.90    
  13   -99.90      -99.90      -99.90      -99.90      -99.90      -99.90      -99.90      -99.90      -99.90      -99.90    
       -99.90      -99.90      -99.90      -99.90      -99.90      -99.90      -99.90      -99.90      -99.90      -99.90    
       -99.90      -99.90      -99.90      -99.90      -99.90      -99.90      -99.90      -99.90      -99.90      -99.90    
       -99.90      -99.90      -99.90      -99.90      -99.90      -99.90      -99.90      -99.90      -99.90      -99.90    
  14   -99.90      -99.90      -99.90      -99.90      -99.90      -99.90      -99.90      -99.90      -99.90      -99.90    
       -99.90      -99.90      -99.90      -99.90      -99.90      -99.90      -99.90      -99.90      -99.90      -99.90    
       -99.90      -99.90      -99.90      -99.90      -99.90      -99.90      -99.90      -99.90      -99.90      -99.90    
       -99.90      -99.90      -99.90      -99.90      -99.90      -99.90      -99.90      -99.90      -99.90      -99.90    
  15   -99.90      -99.90      -99.90      -99.90      -99.90      -99.90      -99.90      -99.90      -99.90      -99.90    
       -99.90      -99.90      -99.90      -99.90      -99.90      -99.90      -99.90      -99.90      -99.90      -99.90    
       -99.90      -99.90      -99.90      -99.90      -99.90      -99.90      -99.90      -99.90      -99.90      -99.90    
       -99.90      -99.90      -99.90      -99.90      -99.90      -99.90      -99.90      -99.90      -99.90      -99.90    
  16   -99.90      -99.90      -99.90      -99.90      -99.90      -99.90      -99.90      -99.90      -99.90      -99.90    
       -99.90      -99.90      -99.90      -99.90      -99.90      -99.90      -99.90      -99.90      -99.90      -99.90    
       -99.90      -99.90      -99.90      -99.90      -99.90      -99.90      -99.90      -99.90      -99.90      -99.90    
       -99.90      -99.90      -99.90      -99.90      -99.90      -99.90      -99.90      -99.90      -99.90      -99.90    
  17   -99.90      -99.90      -99.90      -99.90      -99.90      -99.90      -99.90      -99.90      -99.90      -99.90    
       -99.90      -99.90      -99.90      -99.90      -99.90      -99.90      -99.90      -99.90      -99.90      -99.90    
       -99.90      -99.90      -99.90      -99.90      -99.90      -99.90      -99.90      -99.90      -99.90      -99.90    
       -99.90      -99.90      -99.90      -99.90      -99.90      -99.90      -99.90      -99.90      -99.90      -99.90    
  18   -99.90      -99.90      -99.90      -99.90      -99.90      -99.90      -99.90      -99.90      -99.90      -99.90    
       -99.90      -99.90      -99.90      -99.90      -99.90      -99.90      -99.90      -99.90      -99.90      -99.90    
       -99.90      -99.90      -99.90      -99.90      -99.90      -99.90      -99.90      -99.90      -99.90      -99.90    
       -99.90      -99.90      -99.90      -99.90      -99.90      -99.90      -99.90      -99.90      -99.90      -99.90    
  19   -99.90      -99.90      -99.90      -99.90      -99.90      -99.90      -99.90      -99.90      -99.90      -99.90    
       -99.90      -99.90      -99.90      -99.90      -99.90      -99.90      -99.90      -99.90      -99.90      -99.90    
       -99.90      -99.90      -99.90      -99.90      -99.90      -99.90      -99.90      -99.90      -99.90      -99.90    
       -99.90      -99.90      -99.90      -99.90      -99.90      -99.90      -99.90      -99.90      -99.90      -99.90    
  20   -99.90      -99.90      -99.90      -99.90      -99.90      -99.90      -99.90      -99.90      -99.90      -99.90    
       -99.90      -99.90      -99.90      -99.90      -99.90      -99.90      -99.90      -99.90      -99.90      -99.90    
       -99.90      -99.90      -99.90      -99.90      -99.90      -99.90      -99.90      -99.90      -99.90      -99.90    
       -99.90      -99.90      -99.90      -99.90      -99.90      -99.90      -99.90      -99.90      -99.90      -99.90    
  21   -99.90      -99.90      -99.90      -99.90      -99.90      -99.90      -99.90      -99.90      -99.90      -99.90    
       -99.90      -99.90      -99.90      -99.90      -99.90      -99.90      -99.90      -99.90      -99.90      -99.90    
       -99.90      -99.90      -99.90      -99.90      -99.90      -99.90      -99.90      -99.90      -99.90      -99.90    
       -99.90      -99.90      -99.90      -99.90      -99.90      -99.90      -99.90      -99.90      -99.90      -99.90    
  22   -99.90      -99.90      -99.90      -99.90      -99.90      -99.90      -99.90      -99.90      -99.90      -99.90    
       -99.90      -99.90      -99.90      -99.90      -99.90      -99.90      -99.90      -99.90      -99.90      -99.90    
       -99.90      -99.90      -99.90      -99.90      -99.90      -99.90      -99.90      -99.90      -99.90      -99.90    
       -99.90      -99.90      -99.90      -99.90      -99.90      -99.90      -99.90      -99.90      -99.90      -99.90    
  23   -99.90      -99.90      -99.90      -99.90      -99.90      -99.90      -99.90      -99.90      -99.90      -99.90    
       -99.90      -99.90      -99.90      -99.90      -99.90      -99.90      -99.90      -99.90      -99.90      -99.90    
       -99.90      -99.90      -99.90      -99.90      -99.90      -99.90      -99.90      -99.90      -99.90      -99.90    
       -99.90      -99.90      -99.90      -99.90      -99.90      -99.90      -99.90      -99.90      -99.90      -99.90    
  24   -99.90      -99.90      -99.90      -99.90      -99.90      -99.90      -99.90      -99.90      -99.90      -99.90    
       -99.90      -99.90      -99.90      -99.90      -99.90      -99.90      -99.90      -99.90      -99.90      -99.90    
       -99.90      -99.90      -99.90      -99.90      -99.90      -99.90      -99.90      -99.90      -99.90      -99.90    
       -99.90      -99.90      -99.90      -99.90      -99.90      -99.90      -99.90      -99.90      -99.90      -99.90    
  25   -99.90      -99.90      -99.90      -99.90      -99.90      -99.90      -99.90      -99.90      -99.90      -99.90    
       -99.90      -99.90      -99.90      -99.90      -99.90      -99.90      -99.90      -99.90      -99.90      -99.90    
       -99.90      -99.90      -99.90      -99.90      -99.90      -99.90      -99.90      -99.90      -99.90      -99.90    
       -99.90      -99.90      -99.90      -99.90      -99.90      -99.90      -99.90      -99.90      -99.90      -99.90    
  26   -99.90      -99.90      -99.90      -99.90      -99.90      -99.90      -99.90      -99.90      -99.90      -99.90    
       -99.90      -99.90      -99.90      -99.90      -99.90      -99.90      -99.90      -99.90      -99.90      -99.90    
       -99.90      -99.90      -99.90      -99.90      -99.90      -99.90      -99.90      -99.90      -99.90      -99.90    
       -99.90      -99.90      -99.90      -99.90      -99.90      -99.90      -99.90      -99.90      -99.90      -99.90    
  27   -99.90      -99.90      -99.90      -99.90      -99.90      -99.90      -99.90      -99.90      -99.90      -99.90    
       -99.90      -99.90      -99.90      -99.90      -99.90      -99.90      -99.90      -99.90      -99.90      -99.90    
       -99.90      -99.90      -99.90      -99.90      -99.90      -99.90      -99.90      -99.90      -99.90      -99.90    
       -99.90      -99.90      -99.90      -99.90      -99.90      -99.90      -99.90      -99.90      -99.90      -99.90    
  28   -99.90      -99.90      -99.90      -99.90      -99.90      -99.90      -99.90      -99.90      -99.90      -99.90    
       -99.90      -99.90      -99.90      -99.90      -99.90      -99.90      -99.90      -99.90      -99.90      -99.90    
       -99.90      -99.90      -99.90      -99.90      -99.90      -99.90      -99.90      -99.90      -99.90      -99.90    
       -99.90      -99.90      -99.90      -99.90      -99.90      -99.90      -99.90      -99.90      -99.90      -99.90    
  29   -99.90      -99.90      -99.90      -99.90      -99.90      -99.90      -99.90      -99.90      -99.90      -99.90    
       -99.90      -99.90      -99.90      -99.90      -99.90      -99.90      -99.90      -99.90      -99.90      -99.90    
       -99.90      -99.90      -99.90      -99.90      -99.90      -99.90      -99.90      -99.90      -99.90      -99.90    
       -99.90      -99.90      -99.90      -99.90      -99.90      -99.90      -99.90      -99.90      -99.90      -99.90    
  30   -99.90      -99.90      -99.90      -99.90      -99.90      -99.90      -99.90      -99.90      -99.90      -99.90    
       -99.90      -99.90      -99.90      -99.90      -99.90      -99.90      -99.90      -99.90      -99.90      -99.90    
       -99.90      -99.90      -99.90      -99.90      -99.90      -99.90      -99.90      -99.90      -99.90      -99.90    
       -99.90      -99.90      -99.90      -99.90      -99.90      -99.90      -99.90      -99.90      -99.90      -99.90    
  31   -99.90      -99.90      -99.90      -99.90      -99.90      -99.90      -99.90      -99.90      -99.90      -99.90    
       -99.90      -99.90      -99.90      -99.90      -99.90      -99.90      -99.90      -99.90      -99.90      -99.90    
       -99.90      -99.90      -99.90      -99.90      -99.90      -99.90      -99.90      -99.90      -99.90      -99.90    
       -99.90      -99.90      -99.90      -99.90      -99.90      -99.90      -99.90      -99.90      -99.90      -99.90    
  32   -99.90      -99.90      -99.90      -99.90      -99.90      -99.90      -99.90      -99.90      -99.90      -99.90    
       -99.90      -99.90      -99.90      -99.90      -99.90      -99.90      -99.90      -99.90      -99.90      -99.90    
       -99.90      -99.90      -99.90      -99.90      -99.90      -99.90      -99.90      -99.90      -99.90      -99.90    
       -99.90      -99.90      -99.90      -99.90      -99.90      -99.90      -99.90      -99.90      -99.90      -99.90    
  33   -99.90      -99.90      -99.90      -99.90      -99.90      -99.90      -99.90      -99.90      -99.90      -99.90    
       -99.90      -99.90      -99.90      -99.90      -99.90      -99.90      -99.90      -99.90      -99.90      -99.90    
       -99.90      -99.90      -99.90      -99.90      -99.90      -99.90      -99.90      -99.90      -99.90      -99.90    
       -99.90      -99.90      -99.90      -99.90      -99.90      -99.90      -99.90      -99.90      -99.90      -99.90    
  34   -99.90      -99.90      -99.90      -99.90      -99.90      -99.90      -99.90      -99.90      -99.90      -99.90    
       -99.90      -99.90      -99.90      -99.90      -99.90      -99.90      -99.90      -99.90      -99.90      -99.90    
       -99.90      -99.90      -99.90      -99.90      -99.90      -99.90      -99.90      -99.90      -99.90      -99.90    
       -99.90      -99.90      -99.90      -99.90      -99.90      -99.90      -99.90      -99.90      -99.90      -99.90    
  35   -99.90      -99.90      -99.90      -99.90      -99.90      -99.90      -99.90      -99.90      -99.90      -99.90    
       -99.90      -99.90      -99.90      -99.90      -99.90      -99.90      -99.90      -99.90      -99.90      -99.90    
       -99.90      -99.90      -99.90      -99.90      -99.90      -99.90      -99.90      -99.90      -99.90      -99.90    
       -99.90      -99.90      -99.90      -99.90      -99.90      -99.90      -99.90      -99.90      -99.90      -99.90    
  36   -99.90      -99.90      -99.90      -99.90      -99.90      -99.90      -99.90      -99.90      -99.90      -99.90    
       -99.90      -99.90      -99.90      -99.90      -99.90      -99.90      -99.90      -99.90      -99.90      -99.90    
       -99.90      -99.90      -99.90      -99.90      -99.90      -99.90      -99.90      -99.90      -99.90      -99.90    
       -99.90      -99.90      -99.90      -99.90      -99.90      -99.90      -99.90      -99.90      -99.90      -99.90    
  37   -99.90      -99.90      -99.90      -99.90      -99.90      -99.90      -99.90      -99.90      -99.90      -99.90    
       -99.90      -99.90      -99.90      -99.90      -99.90      -99.90      -99.90      -99.90      -99.90      -99.90    
       -99.90      -99.90      -99.90      -99.90      -99.90      -99.90      -99.90      -99.90      -99.90      -99.90    
       -99.90      -99.90      -99.90      -99.90      -99.90      -99.90      -99.90      -99.90      -99.90      -99.90    
  38   -99.90      -99.90      -99.90      -99.90      -99.90      -99.90      -99.90      -99.90      -99.90      -99.90    
       -99.90      -99.90      -99.90      -99.90      -99.90      -99.90      -99.90      -99.90      -99.90      -99.90    
       -99.90      -99.90      -99.90      -99.90      -99.90      -99.90      -99.90      -99.90      -99.90      -99.90    
       -99.90      -99.90      -99.90      -99.90      -99.90      -99.90      -99.90      -99.90      -99.90      -99.90    
  39   -99.90      -99.90      -99.90      -99.90      -99.90      -99.90      -99.90      -99.90      -99.90      -99.90    
       -99.90      -99.90      -99.90      -99.90      -99.90      -99.90      -99.90      -99.90      -99.90      -99.90    
       -99.90      -99.90      -99.90      -99.90      -99.90      -99.90      -99.90      -99.90      -99.90      -99.90    
       -99.90      -99.90      -99.90      -99.90      -99.90      -99.90      -99.90      -99.90      -99.90      -99.90    
  40   -99.90      -99.90      -99.90      -99.90      -99.90      -99.90      -99.90      -99.90      -99.90      -99.90    
       -99.90      -99.90      -99.90      -99.90      -99.90      -99.90      -99.90      -99.90      -99.90      -99.90    
       -99.90      -99.90      -99.90      -99.90      -99.90      -99.90      -99.90      -99.90      -99.90      -99.90    
       -99.90      -99.90      -99.90      -99.90      -99.90      -99.90      -99.90      -99.90      -99.90      -99.90    
1
              HEAD IN LAYER   7 AT END OF TIME STEP   2 IN STRESS PERIOD    3
  ---------------------------------------------------------------------------

            1           2           3           4           5           6           7           8           9          10
           11          12          13          14          15          16          17          18          19          20
           21          22          23          24          25          26          27          28          29          30
           31          32          33          34          35          36          37          38          39          40
 ........................................................................................................................
   1    48.34       46.76       41.59       38.28       35.73      -99.90      -99.90      -99.90      -99.90      -99.90    
       -99.90      -99.90      -99.90      -99.90      -99.90      -99.90      -99.90      -99.90      -99.90      -99.90    
       -99.90      -99.90      -99.90      -99.90      -99.90      -99.90      -99.90      -99.90      -99.90      -99.90    
       -99.90      -99.90      -99.90      -99.90      -99.90      -99.90      -99.90      -99.90      -99.90      -99.90    
   2    46.76       45.42       40.51       37.62      -99.90      -99.90      -99.90      -99.90      -99.90      -99.90    
       -99.90      -99.90      -99.90      -99.90      -99.90      -99.90      -99.90      -99.90      -99.90      -99.90    
       -99.90      -99.90      -99.90      -99.90      -99.90      -99.90      -99.90      -99.90      -99.90      -99.90    
       -99.90      -99.90      -99.90      -99.90      -99.90      -99.90      -99.90      -99.90      -99.90      -99.90    
   3    41.59       40.51       38.39       36.33      -99.90      -99.90      -99.90      -99.90      -99.90      -99.90    
       -99.90      -99.90      -99.90      -99.90      -99.90      -99.90      -99.90      -99.90      -99.90      -99.90    
       -99.90      -99.90      -99.90      -99.90      -99.90      -99.90      -99.90      -99.90      -99.90      -99.90    
       -99.90      -99.90      -99.90      -99.90      -99.90      -99.90      -99.90      -99.90      -99.90      -99.90    
   4    38.28       37.62       36.33      -99.90      -99.90      -99.90      -99.90      -99.90      -99.90      -99.90    
       -99.90      -99.90      -99.90      -99.90      -99.90      -99.90      -99.90      -99.90      -99.90      -99.90    
       -99.90      -99.90      -99.90      -99.90      -99.90      -99.90      -99.90      -99.90      -99.90      -99.90    
       -99.90      -99.90      -99.90      -99.90      -99.90      -99.90      -99.90      -99.90      -99.90      -99.90    
   5    35.73      -99.90      -99.90      -99.90      -99.90      -99.90      -99.90      -99.90      -99.90      -99.90    
       -99.90      -99.90      -99.90      -99.90      -99.90      -99.90      -99.90      -99.90      -99.90      -99.90    
       -99.90      -99.90      -99.90      -99.90      -99.90      -99.90      -99.90      -99.90      -99.90      -99.90    
       -99.90      -99.90      -99.90      -99.90      -99.90      -99.90      -99.90      -99.90      -99.90      -99.90    
   6   -99.90      -99.90      -99.90      -99.90      -99.90      -99.90      -99.90      -99.90      -99.90      -99.90    
       -99.90      -99.90      -99.90      -99.90      -99.90      -99.90      -99.90      -99.90      -99.90      -99.90    
       -99.90      -99.90      -99.90      -99.90      -99.90      -99.90      -99.90      -99.90      -99.90      -99.90    
       -99.90      -99.90      -99.90      -99.90      -99.90      -99.90      -99.90      -99.90      -99.90      -99.90    
   7   -99.90      -99.90      -99.90      -99.90      -99.90      -99.90      -99.90      -99.90      -99.90      -99.90    
       -99.90      -99.90      -99.90      -99.90      -99.90      -99.90      -99.90      -99.90      -99.90      -99.90    
       -99.90      -99.90      -99.90      -99.90      -99.90      -99.90      -99.90      -99.90      -99.90      -99.90    
       -99.90      -99.90      -99.90      -99.90      -99.90      -99.90      -99.90      -99.90      -99.90      -99.90    
   8   -99.90      -99.90      -99.90      -99.90      -99.90      -99.90      -99.90      -99.90      -99.90      -99.90    
       -99.90      -99.90      -99.90      -99.90      -99.90      -99.90      -99.90      -99.90      -99.90      -99.90    
       -99.90      -99.90      -99.90      -99.90      -99.90      -99.90      -99.90      -99.90      -99.90      -99.90    
       -99.90      -99.90      -99.90      -99.90      -99.90      -99.90      -99.90      -99.90      -99.90      -99.90    
   9   -99.90      -99.90      -99.90      -99.90      -99.90      -99.90      -99.90      -99.90      -99.90      -99.90    
       -99.90      -99.90      -99.90      -99.90      -99.90      -99.90      -99.90      -99.90      -99.90      -99.90    
       -99.90      -99.90      -99.90      -99.90      -99.90      -99.90      -99.90      -99.90      -99.90      -99.90    
       -99.90      -99.90      -99.90      -99.90      -99.90      -99.90      -99.90      -99.90      -99.90      -99.90    
  10   -99.90      -99.90      -99.90      -99.90      -99.90      -99.90      -99.90      -99.90      -99.90      -99.90    
       -99.90      -99.90      -99.90      -99.90      -99.90      -99.90      -99.90      -99.90      -99.90      -99.90    
       -99.90      -99.90      -99.90      -99.90      -99.90      -99.90      -99.90      -99.90      -99.90      -99.90    
       -99.90      -99.90      -99.90      -99.90      -99.90      -99.90      -99.90      -99.90      -99.90      -99.90    
  11   -99.90      -99.90      -99.90      -99.90      -99.90      -99.90      -99.90      -99.90      -99.90      -99.90    
       -99.90      -99.90      -99.90      -99.90      -99.90      -99.90      -99.90      -99.90      -99.90      -99.90    
       -99.90      -99.90      -99.90      -99.90      -99.90      -99.90      -99.90      -99.90      -99.90      -99.90    
       -99.90      -99.90      -99.90      -99.90      -99.90      -99.90      -99.90      -99.90      -99.90      -99.90    
  12   -99.90      -99.90      -99.90      -99.90      -99.90      -99.90      -99.90      -99.90      -99.90      -99.90    
       -99.90      -99.90      -99.90      -99.90      -99.90      -99.90      -99.90      -99.90      -99.90      -99.90    
       -99.90      -99.90      -99.90      -99.90      -99.90      -99.90      -99.90      -99.90      -99.90      -99.90    
       -99.90      -99.90      -99.90      -99.90      -99.90      -99.90      -99.90      -99.90      -99.90      -99.90    
  13   -99.90      -99.90      -99.90      -99.90      -99.90      -99.90      -99.90      -99.90      -99.90      -99.90    
       -99.90      -99.90      -99.90      -99.90      -99.90      -99.90      -99.90      -99.90      -99.90      -99.90    
       -99.90      -99.90      -99.90      -99.90      -99.90      -99.90      -99.90      -99.90      -99.90      -99.90    
       -99.90      -99.90      -99.90      -99.90      -99.90      -99.90      -99.90      -99.90      -99.90      -99.90    
  14   -99.90      -99.90      -99.90      -99.90      -99.90      -99.90      -99.90      -99.90      -99.90      -99.90    
       -99.90      -99.90      -99.90      -99.90      -99.90      -99.90      -99.90      -99.90      -99.90      -99.90    
       -99.90      -99.90      -99.90      -99.90      -99.90      -99.90      -99.90      -99.90      -99.90      -99.90    
       -99.90      -99.90      -99.90      -99.90      -99.90      -99.90      -99.90      -99.90      -99.90      -99.90    
  15   -99.90      -99.90      -99.90      -99.90      -99.90      -99.90      -99.90      -99.90      -99.90      -99.90    
       -99.90      -99.90      -99.90      -99.90      -99.90      -99.90      -99.90      -99.90      -99.90      -99.90    
       -99.90      -99.90      -99.90      -99.90      -99.90      -99.90      -99.90      -99.90      -99.90      -99.90    
       -99.90      -99.90      -99.90      -99.90      -99.90      -99.90      -99.90      -99.90      -99.90      -99.90    
  16   -99.90      -99.90      -99.90      -99.90      -99.90      -99.90      -99.90      -99.90      -99.90      -99.90    
       -99.90      -99.90      -99.90      -99.90      -99.90      -99.90      -99.90      -99.90      -99.90      -99.90    
       -99.90      -99.90      -99.90      -99.90      -99.90      -99.90      -99.90      -99.90      -99.90      -99.90    
       -99.90      -99.90      -99.90      -99.90      -99.90      -99.90      -99.90      -99.90      -99.90      -99.90    
  17   -99.90      -99.90      -99.90      -99.90      -99.90      -99.90      -99.90      -99.90      -99.90      -99.90    
       -99.90      -99.90      -99.90      -99.90      -99.90      -99.90      -99.90      -99.90      -99.90      -99.90    
       -99.90      -99.90      -99.90      -99.90      -99.90      -99.90      -99.90      -99.90      -99.90      -99.90    
       -99.90      -99.90      -99.90      -99.90      -99.90      -99.90      -99.90      -99.90      -99.90      -99.90    
  18   -99.90      -99.90      -99.90      -99.90      -99.90      -99.90      -99.90      -99.90      -99.90      -99.90    
       -99.90      -99.90      -99.90      -99.90      -99.90      -99.90      -99.90      -99.90      -99.90      -99.90    
       -99.90      -99.90      -99.90      -99.90      -99.90      -99.90      -99.90      -99.90      -99.90      -99.90    
       -99.90      -99.90      -99.90      -99.90      -99.90      -99.90      -99.90      -99.90      -99.90      -99.90    
  19   -99.90      -99.90      -99.90      -99.90      -99.90      -99.90      -99.90      -99.90      -99.90      -99.90    
       -99.90      -99.90      -99.90      -99.90      -99.90      -99.90      -99.90      -99.90      -99.90      -99.90    
       -99.90      -99.90      -99.90      -99.90      -99.90      -99.90      -99.90      -99.90      -99.90      -99.90    
       -99.90      -99.90      -99.90      -99.90      -99.90      -99.90      -99.90      -99.90      -99.90      -99.90    
  20   -99.90      -99.90      -99.90      -99.90      -99.90      -99.90      -99.90      -99.90      -99.90      -99.90    
       -99.90      -99.90      -99.90      -99.90      -99.90      -99.90      -99.90      -99.90      -99.90      -99.90    
       -99.90      -99.90      -99.90      -99.90      -99.90      -99.90      -99.90      -99.90      -99.90      -99.90    
       -99.90      -99.90      -99.90      -99.90      -99.90      -99.90      -99.90      -99.90      -99.90      -99.90    
  21   -99.90      -99.90      -99.90      -99.90      -99.90      -99.90      -99.90      -99.90      -99.90      -99.90    
       -99.90      -99.90      -99.90      -99.90      -99.90      -99.90      -99.90      -99.90      -99.90      -99.90    
       -99.90      -99.90      -99.90      -99.90      -99.90      -99.90      -99.90      -99.90      -99.90      -99.90    
       -99.90      -99.90      -99.90      -99.90      -99.90      -99.90      -99.90      -99.90      -99.90      -99.90    
  22   -99.90      -99.90      -99.90      -99.90      -99.90      -99.90      -99.90      -99.90      -99.90      -99.90    
       -99.90      -99.90      -99.90      -99.90      -99.90      -99.90      -99.90      -99.90      -99.90      -99.90    
       -99.90      -99.90      -99.90      -99.90      -99.90      -99.90      -99.90      -99.90      -99.90      -99.90    
       -99.90      -99.90      -99.90      -99.90      -99.90      -99.90      -99.90      -99.90      -99.90      -99.90    
  23   -99.90      -99.90      -99.90      -99.90      -99.90      -99.90      -99.90      -99.90      -99.90      -99.90    
       -99.90      -99.90      -99.90      -99.90      -99.90      -99.90      -99.90      -99.90      -99.90      -99.90    
       -99.90      -99.90      -99.90      -99.90      -99.90      -99.90      -99.90      -99.90      -99.90      -99.90    
       -99.90      -99.90      -99.90      -99.90      -99.90      -99.90      -99.90      -99.90      -99.90      -99.90    
  24   -99.90      -99.90      -99.90      -99.90      -99.90      -99.90      -99.90      -99.90      -99.90      -99.90    
       -99.90      -99.90      -99.90      -99.90      -99.90      -99.90      -99.90      -99.90      -99.90      -99.90    
       -99.90      -99.90      -99.90      -99.90      -99.90      -99.90      -99.90      -99.90      -99.90      -99.90    
       -99.90      -99.90      -99.90      -99.90      -99.90      -99.90      -99.90      -99.90      -99.90      -99.90    
  25   -99.90      -99.90      -99.90      -99.90      -99.90      -99.90      -99.90      -99.90      -99.90      -99.90    
       -99.90      -99.90      -99.90      -99.90      -99.90      -99.90      -99.90      -99.90      -99.90      -99.90    
       -99.90      -99.90      -99.90      -99.90      -99.90      -99.90      -99.90      -99.90      -99.90      -99.90    
       -99.90      -99.90      -99.90      -99.90      -99.90      -99.90      -99.90      -99.90      -99.90      -99.90    
  26   -99.90      -99.90      -99.90      -99.90      -99.90      -99.90      -99.90      -99.90      -99.90      -99.90    
       -99.90      -99.90      -99.90      -99.90      -99.90      -99.90      -99.90      -99.90      -99.90      -99.90    
       -99.90      -99.90      -99.90      -99.90      -99.90      -99.90      -99.90      -99.90      -99.90      -99.90    
       -99.90      -99.90      -99.90      -99.90      -99.90      -99.90      -99.90      -99.90      -99.90      -99.90    
  27   -99.90      -99.90      -99.90      -99.90      -99.90      -99.90      -99.90      -99.90      -99.90      -99.90    
       -99.90      -99.90      -99.90      -99.90      -99.90      -99.90      -99.90      -99.90      -99.90      -99.90    
       -99.90      -99.90      -99.90      -99.90      -99.90      -99.90      -99.90      -99.90      -99.90      -99.90    
       -99.90      -99.90      -99.90      -99.90      -99.90      -99.90      -99.90      -99.90      -99.90      -99.90    
  28   -99.90      -99.90      -99.90      -99.90      -99.90      -99.90      -99.90      -99.90      -99.90      -99.90    
       -99.90      -99.90      -99.90      -99.90      -99.90      -99.90      -99.90      -99.90      -99.90      -99.90    
       -99.90      -99.90      -99.90      -99.90      -99.90      -99.90      -99.90      -99.90      -99.90      -99.90    
       -99.90      -99.90      -99.90      -99.90      -99.90      -99.90      -99.90      -99.90      -99.90      -99.90    
  29   -99.90      -99.90      -99.90      -99.90      -99.90      -99.90      -99.90      -99.90      -99.90      -99.90    
       -99.90      -99.90      -99.90      -99.90      -99.90      -99.90      -99.90      -99.90      -99.90      -99.90    
       -99.90      -99.90      -99.90      -99.90      -99.90      -99.90      -99.90      -99.90      -99.90      -99.90    
       -99.90      -99.90      -99.90      -99.90      -99.90      -99.90      -99.90      -99.90      -99.90      -99.90    
  30   -99.90      -99.90      -99.90      -99.90      -99.90      -99.90      -99.90      -99.90      -99.90      -99.90    
       -99.90      -99.90      -99.90      -99.90      -99.90      -99.90      -99.90      -99.90      -99.90      -99.90    
       -99.90      -99.90      -99.90      -99.90      -99.90      -99.90      -99.90      -99.90      -99.90      -99.90    
       -99.90      -99.90      -99.90      -99.90      -99.90      -99.90      -99.90      -99.90      -99.90      -99.90    
  31   -99.90      -99.90      -99.90      -99.90      -99.90      -99.90      -99.90      -99.90      -99.90      -99.90    
       -99.90      -99.90      -99.90      -99.90      -99.90      -99.90      -99.90      -99.90      -99.90      -99.90    
       -99.90      -99.90      -99.90      -99.90      -99.90      -99.90      -99.90      -99.90      -99.90      -99.90    
       -99.90      -99.90      -99.90      -99.90      -99.90      -99.90      -99.90      -99.90      -99.90      -99.90    
  32   -99.90      -99.90      -99.90      -99.90      -99.90      -99.90      -99.90      -99.90      -99.90      -99.90    
       -99.90      -99.90      -99.90      -99.90      -99.90      -99.90      -99.90      -99.90      -99.90      -99.90    
       -99.90      -99.90      -99.90      -99.90      -99.90      -99.90      -99.90      -99.90      -99.90      -99.90    
       -99.90      -99.90      -99.90      -99.90      -99.90      -99.90      -99.90      -99.90      -99.90      -99.90    
  33   -99.90      -99.90      -99.90      -99.90      -99.90      -99.90      -99.90      -99.90      -99.90      -99.90    
       -99.90      -99.90      -99.90      -99.90      -99.90      -99.90      -99.90      -99.90      -99.90      -99.90    
       -99.90      -99.90      -99.90      -99.90      -99.90      -99.90      -99.90      -99.90      -99.90      -99.90    
       -99.90      -99.90      -99.90      -99.90      -99.90      -99.90      -99.90      -99.90      -99.90      -99.90    
  34   -99.90      -99.90      -99.90      -99.90      -99.90      -99.90      -99.90      -99.90      -99.90      -99.90    
       -99.90      -99.90      -99.90      -99.90      -99.90      -99.90      -99.90      -99.90      -99.90      -99.90    
       -99.90      -99.90      -99.90      -99.90      -99.90      -99.90      -99.90      -99.90      -99.90      -99.90    
       -99.90      -99.90      -99.90      -99.90      -99.90      -99.90      -99.90      -99.90      -99.90      -99.90    
  35   -99.90      -99.90      -99.90      -99.90      -99.90      -99.90      -99.90      -99.90      -99.90      -99.90    
       -99.90      -99.90      -99.90      -99.90      -99.90      -99.90      -99.90      -99.90      -99.90      -99.90    
       -99.90      -99.90      -99.90      -99.90      -99.90      -99.90      -99.90      -99.90      -99.90      -99.90    
       -99.90      -99.90      -99.90      -99.90      -99.90      -99.90      -99.90      -99.90      -99.90      -99.90    
  36   -99.90      -99.90      -99.90      -99.90      -99.90      -99.90      -99.90      -99.90      -99.90      -99.90    
       -99.90      -99.90      -99.90      -99.90      -99.90      -99.90      -99.90      -99.90      -99.90      -99.90    
       -99.90      -99.90      -99.90      -99.90      -99.90      -99.90      -99.90      -99.90      -99.90      -99.90    
       -99.90      -99.90      -99.90      -99.90      -99.90      -99.90      -99.90      -99.90      -99.90      -99.90    
  37   -99.90      -99.90      -99.90      -99.90      -99.90      -99.90      -99.90      -99.90      -99.90      -99.90    
       -99.90      -99.90      -99.90      -99.90      -99.90      -99.90      -99.90      -99.90      -99.90      -99.90    
       -99.90      -99.90      -99.90      -99.90      -99.90      -99.90      -99.90      -99.90      -99.90      -99.90    
       -99.90      -99.90      -99.90      -99.90      -99.90      -99.90      -99.90      -99.90      -99.90      -99.90    
  38   -99.90      -99.90      -99.90      -99.90      -99.90      -99.90      -99.90      -99.90      -99.90      -99.90    
       -99.90      -99.90      -99.90      -99.90      -99.90      -99.90      -99.90      -99.90      -99.90      -99.90    
       -99.90      -99.90      -99.90      -99.90      -99.90      -99.90      -99.90      -99.90      -99.90      -99.90    
       -99.90      -99.90      -99.90      -99.90      -99.90      -99.90      -99.90      -99.90      -99.90      -99.90    
  39   -99.90      -99.90      -99.90      -99.90      -99.90      -99.90      -99.90      -99.90      -99.90      -99.90    
       -99.90      -99.90      -99.90      -99.90      -99.90      -99.90      -99.90      -99.90      -99.90      -99.90    
       -99.90      -99.90      -99.90      -99.90      -99.90      -99.90      -99.90      -99.90      -99.90      -99.90    
       -99.90      -99.90      -99.90      -99.90      -99.90      -99.90      -99.90      -99.90      -99.90      -99.90    
  40   -99.90      -99.90      -99.90      -99.90      -99.90      -99.90      -99.90      -99.90      -99.90      -99.90    
       -99.90      -99.90      -99.90      -99.90      -99.90      -99.90      -99.90      -99.90      -99.90      -99.90    
       -99.90      -99.90      -99.90      -99.90      -99.90      -99.90      -99.90      -99.90      -99.90      -99.90    
       -99.90      -99.90      -99.90      -99.90      -99.90      -99.90      -99.90      -99.90      -99.90      -99.90    
1
              HEAD IN LAYER   8 AT END OF TIME STEP   2 IN STRESS PERIOD    3
  ---------------------------------------------------------------------------

            1           2           3           4           5           6           7           8           9          10
           11          12          13          14          15          16          17          18          19          20
           21          22          23          24          25          26          27          28          29          30
           31          32          33          34          35          36          37          38          39          40
 ........................................................................................................................
   1    47.63       46.01       41.48       38.25       35.74       33.72       32.08       30.70      -99.90      -99.90    
       -99.90      -99.90      -99.90      -99.90      -99.90      -99.90      -99.90      -99.90      -99.90      -99.90    
       -99.90      -99.90      -99.90      -99.90      -99.90      -99.90      -99.90      -99.90      -99.90      -99.90    
       -99.90      -99.90      -99.90      -99.90      -99.90      -99.90      -99.90      -99.90      -99.90      -99.90    
   2    46.01       44.61       40.42       37.59       35.27       33.41       31.85       30.55      -99.90      -99.90    
       -99.90      -99.90      -99.90      -99.90      -99.90      -99.90      -99.90      -99.90      -99.90      -99.90    
       -99.90      -99.90      -99.90      -99.90      -99.90      -99.90      -99.90      -99.90      -99.90      -99.90    
       -99.90      -99.90      -99.90      -99.90      -99.90      -99.90      -99.90      -99.90      -99.90      -99.90    
   3    41.48       40.42       38.35       36.31       34.44       32.83       31.45      -99.90      -99.90      -99.90    
       -99.90      -99.90      -99.90      -99.90      -99.90      -99.90      -99.90      -99.90      -99.90      -99.90    
       -99.90      -99.90      -99.90      -99.90      -99.90      -99.90      -99.90      -99.90      -99.90      -99.90    
       -99.90      -99.90      -99.90      -99.90      -99.90      -99.90      -99.90      -99.90      -99.90      -99.90    
   4    38.25       37.59       36.31       34.83       33.41       32.08       30.87      -99.90      -99.90      -99.90    
       -99.90      -99.90      -99.90      -99.90      -99.90      -99.90      -99.90      -99.90      -99.90      -99.90    
       -99.90      -99.90      -99.90      -99.90      -99.90      -99.90      -99.90      -99.90      -99.90      -99.90    
       -99.90      -99.90      -99.90      -99.90      -99.90      -99.90      -99.90      -99.90      -99.90      -99.90    
   5    35.74       35.27       34.44       33.41       32.32       31.27      -99.90      -99.90      -99.90      -99.90    
       -99.90      -99.90      -99.90      -99.90      -99.90      -99.90      -99.90      -99.90      -99.90      -99.90    
       -99.90      -99.90      -99.90      -99.90      -99.90      -99.90      -99.90      -99.90      -99.90      -99.90    
       -99.90      -99.90      -99.90      -99.90      -99.90      -99.90      -99.90      -99.90      -99.90      -99.90    
   6    33.72       33.41       32.83       32.08       31.27      -99.90      -99.90      -99.90      -99.90      -99.90    
       -99.90      -99.90      -99.90      -99.90      -99.90      -99.90      -99.90      -99.90      -99.90      -99.90    
       -99.90      -99.90      -99.90      -99.90      -99.90      -99.90      -99.90      -99.90      -99.90      -99.90    
       -99.90      -99.90      -99.90      -99.90      -99.90      -99.90      -99.90      -99.90      -99.90      -99.90    
   7    32.08       31.85       31.45       30.87      -99.90      -99.90      -99.90      -99.90      -99.90      -99.90    
       -99.90      -99.90      -99.90      -99.90      -99.90      -99.90      -99.90      -99.90      -99.90      -99.90    
       -99.90      -99.90      -99.90      -99.90      -99.90      -99.90      -99.90      -99.90      -99.90      -99.90    
       -99.90      -99.90      -99.90      -99.90      -99.90      -99.90      -99.90      -99.90      -99.90      -99.90    
   8    30.70       30.55      -99.90      -99.90      -99.90      -99.90      -99.90      -99.90      -99.90      -99.90    
       -99.90      -99.90      -99.90      -99.90      -99.90      -99.90      -99.90      -99.90      -99.90      -99.90    
       -99.90      -99.90      -99.90      -99.90      -99.90      -99.90      -99.90      -99.90      -99.90      -99.90    
       -99.90      -99.90      -99.90      -99.90      -99.90      -99.90      -99.90      -99.90      -99.90      -99.90    
   9   -99.90      -99.90      -99.90      -99.90      -99.90      -99.90      -99.90      -99.90      -99.90      -99.90    
       -99.90      -99.90      -99.90      -99.90      -99.90      -99.90      -99.90      -99.90      -99.90      -99.90    
       -99.90      -99.90      -99.90      -99.90      -99.90      -99.90      -99.90      -99.90      -99.90      -99.90    
       -99.90      -99.90      -99.90      -99.90      -99.90      -99.90      -99.90      -99.90      -99.90      -99.90    
  10   -99.90      -99.90      -99.90      -99.90      -99.90      -99.90      -99.90      -99.90      -99.90      -99.90    
       -99.90      -99.90      -99.90      -99.90      -99.90      -99.90      -99.90      -99.90      -99.90      -99.90    
       -99.90      -99.90      -99.90      -99.90      -99.90      -99.90      -99.90      -99.90      -99.90      -99.90    
       -99.90      -99.90      -99.90      -99.90      -99.90      -99.90      -99.90      -99.90      -99.90      -99.90    
  11   -99.90      -99.90      -99.90      -99.90      -99.90      -99.90      -99.90      -99.90      -99.90      -99.90    
       -99.90      -99.90      -99.90      -99.90      -99.90      -99.90      -99.90      -99.90      -99.90      -99.90    
       -99.90      -99.90      -99.90      -99.90      -99.90      -99.90      -99.90      -99.90      -99.90      -99.90    
       -99.90      -99.90      -99.90      -99.90      -99.90      -99.90      -99.90      -99.90      -99.90      -99.90    
  12   -99.90      -99.90      -99.90      -99.90      -99.90      -99.90      -99.90      -99.90      -99.90      -99.90    
       -99.90      -99.90      -99.90      -99.90      -99.90      -99.90      -99.90      -99.90      -99.90      -99.90    
       -99.90      -99.90      -99.90      -99.90      -99.90      -99.90      -99.90      -99.90      -99.90      -99.90    
       -99.90      -99.90      -99.90      -99.90      -99.90      -99.90      -99.90      -99.90      -99.90      -99.90    
  13   -99.90      -99.90      -99.90      -99.90      -99.90      -99.90      -99.90      -99.90      -99.90      -99.90    
       -99.90      -99.90      -99.90      -99.90      -99.90      -99.90      -99.90      -99.90      -99.90      -99.90    
       -99.90      -99.90      -99.90      -99.90      -99.90      -99.90      -99.90      -99.90      -99.90      -99.90    
       -99.90      -99.90      -99.90      -99.90      -99.90      -99.90      -99.90      -99.90      -99.90      -99.90    
  14   -99.90      -99.90      -99.90      -99.90      -99.90      -99.90      -99.90      -99.90      -99.90      -99.90    
       -99.90      -99.90      -99.90      -99.90      -99.90      -99.90      -99.90      -99.90      -99.90      -99.90    
       -99.90      -99.90      -99.90      -99.90      -99.90      -99.90      -99.90      -99.90      -99.90      -99.90    
       -99.90      -99.90      -99.90      -99.90      -99.90      -99.90      -99.90      -99.90      -99.90      -99.90    
  15   -99.90      -99.90      -99.90      -99.90      -99.90      -99.90      -99.90      -99.90      -99.90      -99.90    
       -99.90      -99.90      -99.90      -99.90      -99.90      -99.90      -99.90      -99.90      -99.90      -99.90    
       -99.90      -99.90      -99.90      -99.90      -99.90      -99.90      -99.90      -99.90      -99.90      -99.90    
       -99.90      -99.90      -99.90      -99.90      -99.90      -99.90      -99.90      -99.90      -99.90      -99.90    
  16   -99.90      -99.90      -99.90      -99.90      -99.90      -99.90      -99.90      -99.90      -99.90      -99.90    
       -99.90      -99.90      -99.90      -99.90      -99.90      -99.90      -99.90      -99.90      -99.90      -99.90    
       -99.90      -99.90      -99.90      -99.90      -99.90      -99.90      -99.90      -99.90      -99.90      -99.90    
       -99.90      -99.90      -99.90      -99.90      -99.90      -99.90      -99.90      -99.90      -99.90      -99.90    
  17   -99.90      -99.90      -99.90      -99.90      -99.90      -99.90      -99.90      -99.90      -99.90      -99.90    
       -99.90      -99.90      -99.90      -99.90      -99.90      -99.90      -99.90      -99.90      -99.90      -99.90    
       -99.90      -99.90      -99.90      -99.90      -99.90      -99.90      -99.90      -99.90      -99.90      -99.90    
       -99.90      -99.90      -99.90      -99.90      -99.90      -99.90      -99.90      -99.90      -99.90      -99.90    
  18   -99.90      -99.90      -99.90      -99.90      -99.90      -99.90      -99.90      -99.90      -99.90      -99.90    
       -99.90      -99.90      -99.90      -99.90      -99.90      -99.90      -99.90      -99.90      -99.90      -99.90    
       -99.90      -99.90      -99.90      -99.90      -99.90      -99.90      -99.90      -99.90      -99.90      -99.90    
       -99.90      -99.90      -99.90      -99.90      -99.90      -99.90      -99.90      -99.90      -99.90      -99.90    
  19   -99.90      -99.90      -99.90      -99.90      -99.90      -99.90      -99.90      -99.90      -99.90      -99.90    
       -99.90      -99.90      -99.90      -99.90      -99.90      -99.90      -99.90      -99.90      -99.90      -99.90    
       -99.90      -99.90      -99.90      -99.90      -99.90      -99.90      -99.90      -99.90      -99.90      -99.90    
       -99.90      -99.90      -99.90      -99.90      -99.90      -99.90      -99.90      -99.90      -99.90      -99.90    
  20   -99.90      -99.90      -99.90      -99.90      -99.90      -99.90      -99.90      -99.90      -99.90      -99.90    
       -99.90      -99.90      -99.90      -99.90      -99.90      -99.90      -99.90      -99.90      -99.90      -99.90    
       -99.90      -99.90      -99.90      -99.90      -99.90      -99.90      -99.90      -99.90      -99.90      -99.90    
       -99.90      -99.90      -99.90      -99.90      -99.90      -99.90      -99.90      -99.90      -99.90      -99.90    
  21   -99.90      -99.90      -99.90      -99.90      -99.90      -99.90      -99.90      -99.90      -99.90      -99.90    
       -99.90      -99.90      -99.90      -99.90      -99.90      -99.90      -99.90      -99.90      -99.90      -99.90    
       -99.90      -99.90      -99.90      -99.90      -99.90      -99.90      -99.90      -99.90      -99.90      -99.90    
       -99.90      -99.90      -99.90      -99.90      -99.90      -99.90      -99.90      -99.90      -99.90      -99.90    
  22   -99.90      -99.90      -99.90      -99.90      -99.90      -99.90      -99.90      -99.90      -99.90      -99.90    
       -99.90      -99.90      -99.90      -99.90      -99.90      -99.90      -99.90      -99.90      -99.90      -99.90    
       -99.90      -99.90      -99.90      -99.90      -99.90      -99.90      -99.90      -99.90      -99.90      -99.90    
       -99.90      -99.90      -99.90      -99.90      -99.90      -99.90      -99.90      -99.90      -99.90      -99.90    
  23   -99.90      -99.90      -99.90      -99.90      -99.90      -99.90      -99.90      -99.90      -99.90      -99.90    
       -99.90      -99.90      -99.90      -99.90      -99.90      -99.90      -99.90      -99.90      -99.90      -99.90    
       -99.90      -99.90      -99.90      -99.90      -99.90      -99.90      -99.90      -99.90      -99.90      -99.90    
       -99.90      -99.90      -99.90      -99.90      -99.90      -99.90      -99.90      -99.90      -99.90      -99.90    
  24   -99.90      -99.90      -99.90      -99.90      -99.90      -99.90      -99.90      -99.90      -99.90      -99.90    
       -99.90      -99.90      -99.90      -99.90      -99.90      -99.90      -99.90      -99.90      -99.90      -99.90    
       -99.90      -99.90      -99.90      -99.90      -99.90      -99.90      -99.90      -99.90      -99.90      -99.90    
       -99.90      -99.90      -99.90      -99.90      -99.90      -99.90      -99.90      -99.90      -99.90      -99.90    
  25   -99.90      -99.90      -99.90      -99.90      -99.90      -99.90      -99.90      -99.90      -99.90      -99.90    
       -99.90      -99.90      -99.90      -99.90      -99.90      -99.90      -99.90      -99.90      -99.90      -99.90    
       -99.90      -99.90      -99.90      -99.90      -99.90      -99.90      -99.90      -99.90      -99.90      -99.90    
       -99.90      -99.90      -99.90      -99.90      -99.90      -99.90      -99.90      -99.90      -99.90      -99.90    
  26   -99.90      -99.90      -99.90      -99.90      -99.90      -99.90      -99.90      -99.90      -99.90      -99.90    
       -99.90      -99.90      -99.90      -99.90      -99.90      -99.90      -99.90      -99.90      -99.90      -99.90    
       -99.90      -99.90      -99.90      -99.90      -99.90      -99.90      -99.90      -99.90      -99.90      -99.90    
       -99.90      -99.90      -99.90      -99.90      -99.90      -99.90      -99.90      -99.90      -99.90      -99.90    
  27   -99.90      -99.90      -99.90      -99.90      -99.90      -99.90      -99.90      -99.90      -99.90      -99.90    
       -99.90      -99.90      -99.90      -99.90      -99.90      -99.90      -99.90      -99.90      -99.90      -99.90    
       -99.90      -99.90      -99.90      -99.90      -99.90      -99.90      -99.90      -99.90      -99.90      -99.90    
       -99.90      -99.90      -99.90      -99.90      -99.90      -99.90      -99.90      -99.90      -99.90      -99.90    
  28   -99.90      -99.90      -99.90      -99.90      -99.90      -99.90      -99.90      -99.90      -99.90      -99.90    
       -99.90      -99.90      -99.90      -99.90      -99.90      -99.90      -99.90      -99.90      -99.90      -99.90    
       -99.90      -99.90      -99.90      -99.90      -99.90      -99.90      -99.90      -99.90      -99.90      -99.90    
       -99.90      -99.90      -99.90      -99.90      -99.90      -99.90      -99.90      -99.90      -99.90      -99.90    
  29   -99.90      -99.90      -99.90      -99.90      -99.90      -99.90      -99.90      -99.90      -99.90      -99.90    
       -99.90      -99.90      -99.90      -99.90      -99.90      -99.90      -99.90      -99.90      -99.90      -99.90    
       -99.90      -99.90      -99.90      -99.90      -99.90      -99.90      -99.90      -99.90      -99.90      -99.90    
       -99.90      -99.90      -99.90      -99.90      -99.90      -99.90      -99.90      -99.90      -99.90      -99.90    
  30   -99.90      -99.90      -99.90      -99.90      -99.90      -99.90      -99.90      -99.90      -99.90      -99.90    
       -99.90      -99.90      -99.90      -99.90      -99.90      -99.90      -99.90      -99.90      -99.90      -99.90    
       -99.90      -99.90      -99.90      -99.90      -99.90      -99.90      -99.90      -99.90      -99.90      -99.90    
       -99.90      -99.90      -99.90      -99.90      -99.90      -99.90      -99.90      -99.90      -99.90      -99.90    
  31   -99.90      -99.90      -99.90      -99.90      -99.90      -99.90      -99.90      -99.90      -99.90      -99.90    
       -99.90      -99.90      -99.90      -99.90      -99.90      -99.90      -99.90      -99.90      -99.90      -99.90    
       -99.90      -99.90      -99.90      -99.90      -99.90      -99.90      -99.90      -99.90      -99.90      -99.90    
       -99.90      -99.90      -99.90      -99.90      -99.90      -99.90      -99.90      -99.90      -99.90      -99.90    
  32   -99.90      -99.90      -99.90      -99.90      -99.90      -99.90      -99.90      -99.90      -99.90      -99.90    
       -99.90      -99.90      -99.90      -99.90      -99.90      -99.90      -99.90      -99.90      -99.90      -99.90    
       -99.90      -99.90      -99.90      -99.90      -99.90      -99.90      -99.90      -99.90      -99.90      -99.90    
       -99.90      -99.90      -99.90      -99.90      -99.90      -99.90      -99.90      -99.90      -99.90      -99.90    
  33   -99.90      -99.90      -99.90      -99.90      -99.90      -99.90      -99.90      -99.90      -99.90      -99.90    
       -99.90      -99.90      -99.90      -99.90      -99.90      -99.90      -99.90      -99.90      -99.90      -99.90    
       -99.90      -99.90      -99.90      -99.90      -99.90      -99.90      -99.90      -99.90      -99.90      -99.90    
       -99.90      -99.90      -99.90      -99.90      -99.90      -99.90      -99.90      -99.90      -99.90      -99.90    
  34   -99.90      -99.90      -99.90      -99.90      -99.90      -99.90      -99.90      -99.90      -99.90      -99.90    
       -99.90      -99.90      -99.90      -99.90      -99.90      -99.90      -99.90      -99.90      -99.90      -99.90    
       -99.90      -99.90      -99.90      -99.90      -99.90      -99.90      -99.90      -99.90      -99.90      -99.90    
       -99.90      -99.90      -99.90      -99.90      -99.90      -99.90      -99.90      -99.90      -99.90      -99.90    
  35   -99.90      -99.90      -99.90      -99.90      -99.90      -99.90      -99.90      -99.90      -99.90      -99.90    
       -99.90      -99.90      -99.90      -99.90      -99.90      -99.90      -99.90      -99.90      -99.90      -99.90    
       -99.90      -99.90      -99.90      -99.90      -99.90      -99.90      -99.90      -99.90      -99.90      -99.90    
       -99.90      -99.90      -99.90      -99.90      -99.90      -99.90      -99.90      -99.90      -99.90      -99.90    
  36   -99.90      -99.90      -99.90      -99.90      -99.90      -99.90      -99.90      -99.90      -99.90      -99.90    
       -99.90      -99.90      -99.90      -99.90      -99.90      -99.90      -99.90      -99.90      -99.90      -99.90    
       -99.90      -99.90      -99.90      -99.90      -99.90      -99.90      -99.90      -99.90      -99.90      -99.90    
       -99.90      -99.90      -99.90      -99.90      -99.90      -99.90      -99.90      -99.90      -99.90      -99.90    
  37   -99.90      -99.90      -99.90      -99.90      -99.90      -99.90      -99.90      -99.90      -99.90      -99.90    
       -99.90      -99.90      -99.90      -99.90      -99.90      -99.90      -99.90      -99.90      -99.90      -99.90    
       -99.90      -99.90      -99.90      -99.90      -99.90      -99.90      -99.90      -99.90      -99.90      -99.90    
       -99.90      -99.90      -99.90      -99.90      -99.90      -99.90      -99.90      -99.90      -99.90      -99.90    
  38   -99.90      -99.90      -99.90      -99.90      -99.90      -99.90      -99.90      -99.90      -99.90      -99.90    
       -99.90      -99.90      -99.90      -99.90      -99.90      -99.90      -99.90      -99.90      -99.90      -99.90    
       -99.90      -99.90      -99.90      -99.90      -99.90      -99.90      -99.90      -99.90      -99.90      -99.90    
       -99.90      -99.90      -99.90      -99.90      -99.90      -99.90      -99.90      -99.90      -99.90      -99.90    
  39   -99.90      -99.90      -99.90      -99.90      -99.90      -99.90      -99.90      -99.90      -99.90      -99.90    
       -99.90      -99.90      -99.90      -99.90      -99.90      -99.90      -99.90      -99.90      -99.90      -99.90    
       -99.90      -99.90      -99.90      -99.90      -99.90      -99.90      -99.90      -99.90      -99.90      -99.90    
       -99.90      -99.90      -99.90      -99.90      -99.90      -99.90      -99.90      -99.90      -99.90      -99.90    
  40   -99.90      -99.90      -99.90      -99.90      -99.90      -99.90      -99.90      -99.90      -99.90      -99.90    
       -99.90      -99.90      -99.90      -99.90      -99.90      -99.90      -99.90      -99.90      -99.90      -99.90    
       -99.90      -99.90      -99.90      -99.90      -99.90      -99.90      -99.90      -99.90      -99.90      -99.90    
       -99.90      -99.90      -99.90      -99.90      -99.90      -99.90      -99.90      -99.90      -99.90      -99.90    
1
              HEAD IN LAYER   9 AT END OF TIME STEP   2 IN STRESS PERIOD    3
  ---------------------------------------------------------------------------

            1           2           3           4           5           6           7           8           9          10
           11          12          13          14          15          16          17          18          19          20
           21          22          23          24          25          26          27          28          29          30
           31          32          33          34          35          36          37          38          39          40
 ........................................................................................................................
   1    47.02       45.40       41.36       38.22       35.74       33.73       32.09       30.72       29.59       28.67    
        27.92       27.31       26.81       26.42       26.11       25.86       25.66       25.52       25.40       25.32    
        25.26       25.23      -99.90      -99.90      -99.90      -99.90      -99.90      -99.90      -99.90      -99.90    
       -99.90      -99.90      -99.90      -99.90      -99.90      -99.90      -99.90      -99.90      -99.90      -99.90    
   2    45.40       43.99       40.32       37.55       35.27       33.42       31.86       30.56       29.47       28.58    
        27.85       27.26       26.78       26.39       26.09       25.84       25.65       25.51       25.40       25.32    
        25.26       25.23      -99.90      -99.90      -99.90      -99.90      -99.90      -99.90      -99.90      -99.90    
       -99.90      -99.90      -99.90      -99.90      -99.90      -99.90      -99.90      -99.90      -99.90      -99.90    
   3    41.36       40.32       38.32       36.30       34.44       32.84       31.46       30.26       29.25       28.42    
        27.73       27.17       26.71       26.34       26.05       25.82       25.63       25.49       25.39       25.31    
        25.26       25.22      -99.90      -99.90      -99.90      -99.90      -99.90      -99.90      -99.90      -99.90    
       -99.90      -99.90      -99.90      -99.90      -99.90      -99.90      -99.90      -99.90      -99.90      -99.90    
   4    38.22       37.55       36.30       34.84       33.42       32.09       30.88       29.84       28.95       28.19    
        27.56       27.04       26.61       26.27       25.99       25.78       25.60       25.47       25.37       25.30    
        25.25       25.22      -99.90      -99.90      -99.90      -99.90      -99.90      -99.90      -99.90      -99.90    
       -99.90      -99.90      -99.90      -99.90      -99.90      -99.90      -99.90      -99.90      -99.90      -99.90    
   5    35.74       35.27       34.44       33.42       32.33       31.27       30.27       29.36       28.58       27.91    
        27.35       26.88       26.50       26.18       25.93       25.73       25.57       25.45       25.35       25.29    
        25.24       25.21      -99.90      -99.90      -99.90      -99.90      -99.90      -99.90      -99.90      -99.90    
       -99.90      -99.90      -99.90      -99.90      -99.90      -99.90      -99.90      -99.90      -99.90      -99.90    
   6    33.73       33.42       32.84       32.09       31.27       30.43       29.60       28.85       28.19       27.61    
        27.12       26.71       26.36       26.08       25.85       25.67       25.53       25.42       25.33       25.27    
        25.23       25.21      -99.90      -99.90      -99.90      -99.90      -99.90      -99.90      -99.90      -99.90    
       -99.90      -99.90      -99.90      -99.90      -99.90      -99.90      -99.90      -99.90      -99.90      -99.90    
   7    32.09       31.86       31.46       30.88       30.27       29.60       28.95       28.34       27.79       27.30    
        26.88       26.52       26.22       25.97       25.77       25.61       25.48       25.38       25.31       25.26    
        25.22      -99.90      -99.90      -99.90      -99.90      -99.90      -99.90      -99.90      -99.90      -99.90    
       -99.90      -99.90      -99.90      -99.90      -99.90      -99.90      -99.90      -99.90      -99.90      -99.90    
   8    30.72       30.56       30.26       29.84       29.36       28.85       28.34       27.85       27.40       26.99    
        26.64       26.34       26.08       25.86       25.69       25.55       25.44       25.35       25.29       25.24    
        25.21      -99.90      -99.90      -99.90      -99.90      -99.90      -99.90      -99.90      -99.90      -99.90    
       -99.90      -99.90      -99.90      -99.90      -99.90      -99.90      -99.90      -99.90      -99.90      -99.90    
   9    29.59       29.47       29.25       28.95       28.58       28.19       27.79       27.40       27.03       26.70    
        26.41       26.16       25.94       25.76       25.61       25.49       25.39       25.32       25.27       25.23    
        25.20      -99.90      -99.90      -99.90      -99.90      -99.90      -99.90      -99.90      -99.90      -99.90    
       -99.90      -99.90      -99.90      -99.90      -99.90      -99.90      -99.90      -99.90      -99.90      -99.90    
  10    28.67       28.58       28.42       28.19       27.91       27.61       27.30       26.99       26.70       26.44    
        26.20       25.99       25.81       25.66       25.53       25.43       25.35       25.29       25.25       25.22    
       -99.90      -99.90      -99.90      -99.90      -99.90      -99.90      -99.90      -99.90      -99.90      -99.90    
       -99.90      -99.90      -99.90      -99.90      -99.90      -99.90      -99.90      -99.90      -99.90      -99.90    
  11    27.92       27.85       27.73       27.56       27.35       27.12       26.88       26.64       26.41       26.20    
        26.00       25.83       25.69       25.56       25.46       25.38       25.31       25.26       25.23       25.20    
       -99.90      -99.90      -99.90      -99.90      -99.90      -99.90      -99.90      -99.90      -99.90      -99.90    
       -99.90      -99.90      -99.90      -99.90      -99.90      -99.90      -99.90      -99.90      -99.90      -99.90    
  12    27.31       27.26       27.17       27.04       26.88       26.71       26.52       26.34       26.16       25.99    
        25.83       25.70       25.58       25.48       25.40       25.33       25.28       25.24       25.21      -99.90    
       -99.90      -99.90      -99.90      -99.90      -99.90      -99.90      -99.90      -99.90      -99.90      -99.90    
       -99.90      -99.90      -99.90      -99.90      -99.90      -99.90      -99.90      -99.90      -99.90      -99.90    
  13    26.81       26.78       26.71       26.61       26.50       26.36       26.22       26.08       25.94       25.81    
        25.69       25.58       25.49       25.41       25.34       25.29       25.25       25.22       25.20      -99.90    
       -99.90      -99.90      -99.90      -99.90      -99.90      -99.90      -99.90      -99.90      -99.90      -99.90    
       -99.90      -99.90      -99.90      -99.90      -99.90      -99.90      -99.90      -99.90      -99.90      -99.90    
  14    26.42       26.39       26.34       26.27       26.18       26.08       25.97       25.86       25.76       25.66    
        25.56       25.48       25.41       25.35       25.29       25.26       25.23       25.20      -99.90      -99.90    
       -99.90      -99.90      -99.90      -99.90      -99.90      -99.90      -99.90      -99.90      -99.90      -99.90    
       -99.90      -99.90      -99.90      -99.90      -99.90      -99.90      -99.90      -99.90      -99.90      -99.90    
  15    26.11       26.09       26.05       25.99       25.93       25.85       25.77       25.69       25.61       25.53    
        25.46       25.40       25.34       25.29       25.26       25.23       25.21      -99.90      -99.90      -99.90    
       -99.90      -99.90      -99.90      -99.90      -99.90      -99.90      -99.90      -99.90      -99.90      -99.90    
       -99.90      -99.90      -99.90      -99.90      -99.90      -99.90      -99.90      -99.90      -99.90      -99.90    
  16    25.86       25.84       25.82       25.78       25.73       25.67       25.61       25.55       25.49       25.43    
        25.38       25.33       25.29       25.26       25.23       25.21      -99.90      -99.90      -99.90      -99.90    
       -99.90      -99.90      -99.90      -99.90      -99.90      -99.90      -99.90      -99.90      -99.90      -99.90    
       -99.90      -99.90      -99.90      -99.90      -99.90      -99.90      -99.90      -99.90      -99.90      -99.90    
  17    25.66       25.65       25.63       25.60       25.57       25.53       25.48       25.44       25.39       25.35    
        25.31       25.28       25.25       25.23       25.21      -99.90      -99.90      -99.90      -99.90      -99.90    
       -99.90      -99.90      -99.90      -99.90      -99.90      -99.90      -99.90      -99.90      -99.90      -99.90    
       -99.90      -99.90      -99.90      -99.90      -99.90      -99.90      -99.90      -99.90      -99.90      -99.90    
  18    25.52       25.51       25.49       25.47       25.45       25.42       25.38       25.35       25.32       25.29    
        25.26       25.24       25.22       25.20      -99.90      -99.90      -99.90      -99.90      -99.90      -99.90    
       -99.90      -99.90      -99.90      -99.90      -99.90      -99.90      -99.90      -99.90      -99.90      -99.90    
       -99.90      -99.90      -99.90      -99.90      -99.90      -99.90      -99.90      -99.90      -99.90      -99.90    
  19    25.40       25.40       25.39       25.37       25.35       25.33       25.31       25.29       25.27       25.25    
        25.23       25.21       25.20      -99.90      -99.90      -99.90      -99.90      -99.90      -99.90      -99.90    
       -99.90      -99.90      -99.90      -99.90      -99.90      -99.90      -99.90      -99.90      -99.90      -99.90    
       -99.90      -99.90      -99.90      -99.90      -99.90      -99.90      -99.90      -99.90      -99.90      -99.90    
  20    25.32       25.32       25.31       25.30       25.29       25.27       25.26       25.24       25.23       25.22    
        25.20      -99.90      -99.90      -99.90      -99.90      -99.90      -99.90      -99.90      -99.90      -99.90    
       -99.90      -99.90      -99.90      -99.90      -99.90      -99.90      -99.90      -99.90      -99.90      -99.90    
       -99.90      -99.90      -99.90      -99.90      -99.90      -99.90      -99.90      -99.90      -99.90      -99.90    
  21    25.26       25.26       25.26       25.25       25.24       25.23       25.22       25.21       25.20      -99.90    
       -99.90      -99.90      -99.90      -99.90      -99.90      -99.90      -99.90      -99.90      -99.90      -99.90    
       -99.90      -99.90      -99.90      -99.90      -99.90      -99.90      -99.90      -99.90      -99.90      -99.90    
       -99.90      -99.90      -99.90      -99.90      -99.90      -99.90      -99.90      -99.90      -99.90      -99.90    
  22    25.23       25.23       25.22       25.22       25.21       25.21      -99.90      -99.90      -99.90      -99.90    
       -99.90      -99.90      -99.90      -99.90      -99.90      -99.90      -99.90      -99.90      -99.90      -99.90    
       -99.90      -99.90      -99.90      -99.90      -99.90      -99.90      -99.90      -99.90      -99.90      -99.90    
       -99.90      -99.90      -99.90      -99.90      -99.90      -99.90      -99.90      -99.90      -99.90      -99.90    
  23   -99.90      -99.90      -99.90      -99.90      -99.90      -99.90      -99.90      -99.90      -99.90      -99.90    
       -99.90      -99.90      -99.90      -99.90      -99.90      -99.90      -99.90      -99.90      -99.90      -99.90    
       -99.90      -99.90      -99.90      -99.90      -99.90      -99.90      -99.90      -99.90      -99.90      -99.90    
       -99.90      -99.90      -99.90      -99.90      -99.90      -99.90      -99.90      -99.90      -99.90      -99.90    
  24   -99.90      -99.90      -99.90      -99.90      -99.90      -99.90      -99.90      -99.90      -99.90      -99.90    
       -99.90      -99.90      -99.90      -99.90      -99.90      -99.90      -99.90      -99.90      -99.90      -99.90    
       -99.90      -99.90      -99.90      -99.90      -99.90      -99.90      -99.90      -99.90      -99.90      -99.90    
       -99.90      -99.90      -99.90      -99.90      -99.90      -99.90      -99.90      -99.90      -99.90      -99.90    
  25   -99.90      -99.90      -99.90      -99.90      -99.90      -99.90      -99.90      -99.90      -99.90      -99.90    
       -99.90      -99.90      -99.90      -99.90      -99.90      -99.90      -99.90      -99.90      -99.90      -99.90    
       -99.90      -99.90      -99.90      -99.90      -99.90      -99.90      -99.90      -99.90      -99.90      -99.90    
       -99.90      -99.90      -99.90      -99.90      -99.90      -99.90      -99.90      -99.90      -99.90      -99.90    
  26   -99.90      -99.90      -99.90      -99.90      -99.90      -99.90      -99.90      -99.90      -99.90      -99.90    
       -99.90      -99.90      -99.90      -99.90      -99.90      -99.90      -99.90      -99.90      -99.90      -99.90    
       -99.90      -99.90      -99.90      -99.90      -99.90      -99.90      -99.90      -99.90      -99.90      -99.90    
       -99.90      -99.90      -99.90      -99.90      -99.90      -99.90      -99.90      -99.90      -99.90      -99.90    
  27   -99.90      -99.90      -99.90      -99.90      -99.90      -99.90      -99.90      -99.90      -99.90      -99.90    
       -99.90      -99.90      -99.90      -99.90      -99.90      -99.90      -99.90      -99.90      -99.90      -99.90    
       -99.90      -99.90      -99.90      -99.90      -99.90      -99.90      -99.90      -99.90      -99.90      -99.90    
       -99.90      -99.90      -99.90      -99.90      -99.90      -99.90      -99.90      -99.90      -99.90      -99.90    
  28   -99.90      -99.90      -99.90      -99.90      -99.90      -99.90      -99.90      -99.90      -99.90      -99.90    
       -99.90      -99.90      -99.90      -99.90      -99.90      -99.90      -99.90      -99.90      -99.90      -99.90    
       -99.90      -99.90      -99.90      -99.90      -99.90      -99.90      -99.90      -99.90      -99.90      -99.90    
       -99.90      -99.90      -99.90      -99.90      -99.90      -99.90      -99.90      -99.90      -99.90      -99.90    
  29   -99.90      -99.90      -99.90      -99.90      -99.90      -99.90      -99.90      -99.90      -99.90      -99.90    
       -99.90      -99.90      -99.90      -99.90      -99.90      -99.90      -99.90      -99.90      -99.90      -99.90    
       -99.90      -99.90      -99.90      -99.90      -99.90      -99.90      -99.90      -99.90      -99.90      -99.90    
       -99.90      -99.90      -99.90      -99.90      -99.90      -99.90      -99.90      -99.90      -99.90      -99.90    
  30   -99.90      -99.90      -99.90      -99.90      -99.90      -99.90      -99.90      -99.90      -99.90      -99.90    
       -99.90      -99.90      -99.90      -99.90      -99.90      -99.90      -99.90      -99.90      -99.90      -99.90    
       -99.90      -99.90      -99.90      -99.90      -99.90      -99.90      -99.90      -99.90      -99.90      -99.90    
       -99.90      -99.90      -99.90      -99.90      -99.90      -99.90      -99.90      -99.90      -99.90      -99.90    
  31   -99.90      -99.90      -99.90      -99.90      -99.90      -99.90      -99.90      -99.90      -99.90      -99.90    
       -99.90      -99.90      -99.90      -99.90      -99.90      -99.90      -99.90      -99.90      -99.90      -99.90    
       -99.90      -99.90      -99.90      -99.90      -99.90      -99.90      -99.90      -99.90      -99.90      -99.90    
       -99.90      -99.90      -99.90      -99.90      -99.90      -99.90      -99.90      -99.90      -99.90      -99.90    
  32   -99.90      -99.90      -99.90      -99.90      -99.90      -99.90      -99.90      -99.90      -99.90      -99.90    
       -99.90      -99.90      -99.90      -99.90      -99.90      -99.90      -99.90      -99.90      -99.90      -99.90    
       -99.90      -99.90      -99.90      -99.90      -99.90      -99.90      -99.90      -99.90      -99.90      -99.90    
       -99.90      -99.90      -99.90      -99.90      -99.90      -99.90      -99.90      -99.90      -99.90      -99.90    
  33   -99.90      -99.90      -99.90      -99.90      -99.90      -99.90      -99.90      -99.90      -99.90      -99.90    
       -99.90      -99.90      -99.90      -99.90      -99.90      -99.90      -99.90      -99.90      -99.90      -99.90    
       -99.90      -99.90      -99.90      -99.90      -99.90      -99.90      -99.90      -99.90      -99.90      -99.90    
       -99.90      -99.90      -99.90      -99.90      -99.90      -99.90      -99.90      -99.90      -99.90      -99.90    
  34   -99.90      -99.90      -99.90      -99.90      -99.90      -99.90      -99.90      -99.90      -99.90      -99.90    
       -99.90      -99.90      -99.90      -99.90      -99.90      -99.90      -99.90      -99.90      -99.90      -99.90    
       -99.90      -99.90      -99.90      -99.90      -99.90      -99.90      -99.90      -99.90      -99.90      -99.90    
       -99.90      -99.90      -99.90      -99.90      -99.90      -99.90      -99.90      -99.90      -99.90      -99.90    
  35   -99.90      -99.90      -99.90      -99.90      -99.90      -99.90      -99.90      -99.90      -99.90      -99.90    
       -99.90      -99.90      -99.90      -99.90      -99.90      -99.90      -99.90      -99.90      -99.90      -99.90    
       -99.90      -99.90      -99.90      -99.90      -99.90      -99.90      -99.90      -99.90      -99.90      -99.90    
       -99.90      -99.90      -99.90      -99.90      -99.90      -99.90      -99.90      -99.90      -99.90      -99.90    
  36   -99.90      -99.90      -99.90      -99.90      -99.90      -99.90      -99.90      -99.90      -99.90      -99.90    
       -99.90      -99.90      -99.90      -99.90      -99.90      -99.90      -99.90      -99.90      -99.90      -99.90    
       -99.90      -99.90      -99.90      -99.90      -99.90      -99.90      -99.90      -99.90      -99.90      -99.90    
       -99.90      -99.90      -99.90      -99.90      -99.90      -99.90      -99.90      -99.90      -99.90      -99.90    
  37   -99.90      -99.90      -99.90      -99.90      -99.90      -99.90      -99.90      -99.90      -99.90      -99.90    
       -99.90      -99.90      -99.90      -99.90      -99.90      -99.90      -99.90      -99.90      -99.90      -99.90    
       -99.90      -99.90      -99.90      -99.90      -99.90      -99.90      -99.90      -99.90      -99.90      -99.90    
       -99.90      -99.90      -99.90      -99.90      -99.90      -99.90      -99.90      -99.90      -99.90      -99.90    
  38   -99.90      -99.90      -99.90      -99.90      -99.90      -99.90      -99.90      -99.90      -99.90      -99.90    
       -99.90      -99.90      -99.90      -99.90      -99.90      -99.90      -99.90      -99.90      -99.90      -99.90    
       -99.90      -99.90      -99.90      -99.90      -99.90      -99.90      -99.90      -99.90      -99.90      -99.90    
       -99.90      -99.90      -99.90      -99.90      -99.90      -99.90      -99.90      -99.90      -99.90      -99.90    
  39   -99.90      -99.90      -99.90      -99.90      -99.90      -99.90      -99.90      -99.90      -99.90      -99.90    
       -99.90      -99.90      -99.90      -99.90      -99.90      -99.90      -99.90      -99.90      -99.90      -99.90    
       -99.90      -99.90      -99.90      -99.90      -99.90      -99.90      -99.90      -99.90      -99.90      -99.90    
       -99.90      -99.90      -99.90      -99.90      -99.90      -99.90      -99.90      -99.90      -99.90      -99.90    
  40   -99.90      -99.90      -99.90      -99.90      -99.90      -99.90      -99.90      -99.90      -99.90      -99.90    
       -99.90      -99.90      -99.90      -99.90      -99.90      -99.90      -99.90      -99.90      -99.90      -99.90    
       -99.90      -99.90      -99.90      -99.90      -99.90      -99.90      -99.90      -99.90      -99.90      -99.90    
       -99.90      -99.90      -99.90      -99.90      -99.90      -99.90      -99.90      -99.90      -99.90      -99.90    
1
              HEAD IN LAYER  10 AT END OF TIME STEP   2 IN STRESS PERIOD    3
  ---------------------------------------------------------------------------

            1           2           3           4           5           6           7           8           9          10
           11          12          13          14          15          16          17          18          19          20
           21          22          23          24          25          26          27          28          29          30
           31          32          33          34          35          36          37          38          39          40
 ........................................................................................................................
   1    46.52       44.91       41.25       38.20       35.73       33.74       32.10       30.73       29.60       28.68    
        27.93       27.32       26.82       26.43       26.11       25.86       25.67       25.52       25.41       25.33    
        25.27       25.23       25.21       25.19       25.18       25.16       25.15       25.13       25.12       25.11    
        25.10       25.08       25.07       25.06       25.05       25.04       25.03       25.02       25.01       25.00    
   2    44.91       43.51       40.23       37.53       35.27       33.42       31.87       30.57       29.49       28.60    
        27.87       27.27       26.79       26.40       26.09       25.85       25.66       25.51       25.40       25.32    
        25.27       25.23       25.21       25.19       25.18       25.16       25.15       25.13       25.12       25.11    
        25.09       25.08       25.07       25.06       25.05       25.04       25.03       25.02       25.01       25.00    
   3    41.25       40.23       38.29       36.29       34.45       32.85       31.46       30.27       29.27       28.43    
        27.74       27.18       26.72       26.35       26.06       25.82       25.64       25.50       25.39       25.31    
        25.26       25.22       25.21       25.19       25.17       25.16       25.15       25.13       25.12       25.11    
        25.09       25.08       25.07       25.06       25.05       25.04       25.03       25.02       25.01       25.00    
   4    38.20       37.53       36.29       34.84       33.42       32.10       30.90       29.85       28.96       28.20    
        27.57       27.05       26.62       26.28       26.00       25.78       25.61       25.48       25.38       25.30    
        25.25       25.22       25.20       25.19       25.17       25.16       25.14       25.13       25.12       25.11    
        25.09       25.08       25.07       25.06       25.05       25.04       25.03       25.02       25.01       25.00    
   5    35.73       35.27       34.45       33.42       32.34       31.28       30.28       29.38       28.59       27.93    
        27.36       26.89       26.50       26.19       25.93       25.73       25.57       25.45       25.36       25.29    
        25.24       25.21       25.20       25.18       25.17       25.16       25.14       25.13       25.12       25.10    
        25.09       25.08       25.07       25.06       25.05       25.04       25.03       25.02       25.01       25.00    
   6    33.74       33.42       32.85       32.10       31.28       30.44       29.61       28.86       28.20       27.62    
        27.13       26.72       26.37       26.09       25.86       25.68       25.53       25.42       25.34       25.28    
        25.23       25.21       25.20       25.18       25.17       25.15       25.14       25.13       25.11       25.10    
        25.09       25.08       25.07       25.06       25.05       25.04       25.03       25.02       25.01       25.00    
   7    32.10       31.87       31.46       30.90       30.28       29.61       28.96       28.35       27.80       27.31    
        26.89       26.53       26.23       25.98       25.78       25.62       25.49       25.39       25.31       25.26    
        25.23       25.21       25.19       25.18       25.16       25.15       25.14       25.12       25.11       25.10    
        25.09       25.08       25.07       25.06       25.05       25.04       25.03       25.02       25.01       25.00    
   8    30.73       30.57       30.27       29.85       29.38       28.86       28.35       27.86       27.41       27.00    
        26.65       26.34       26.09       25.87       25.69       25.55       25.44       25.36       25.29       25.25    
        25.22       25.20       25.19       25.17       25.16       25.15       25.13       25.12       25.11       25.10    
        25.09       25.08       25.07       25.06       25.05       25.04       25.03       25.02       25.01       25.00    
   9    29.60       29.49       29.27       28.96       28.59       28.20       27.80       27.41       27.04       26.71    
        26.42       26.16       25.95       25.76       25.61       25.49       25.40       25.32       25.27       25.23    
        25.21       25.20       25.18       25.17       25.15       25.14       25.13       25.12       25.11       25.10    
        25.09       25.08       25.07       25.06       25.05       25.04       25.03       25.02       25.01       25.00    
  10    28.68       28.60       28.43       28.20       27.93       27.62       27.31       27.00       26.71       26.44    
        26.20       25.99       25.81       25.66       25.54       25.43       25.35       25.29       25.25       25.22    
        25.20       25.19       25.18       25.16       25.15       25.14       25.13       25.11       25.10       25.09    
        25.08       25.07       25.06       25.05       25.04       25.04       25.03       25.02       25.01       25.00    
  11    27.93       27.87       27.74       27.57       27.36       27.13       26.89       26.65       26.42       26.20    
        26.01       25.84       25.69       25.57       25.46       25.38       25.32       25.27       25.23       25.21    
        25.20       25.18       25.17       25.16       25.15       25.13       25.12       25.11       25.10       25.09    
        25.08       25.07       25.06       25.05       25.04       25.03       25.03       25.02       25.01       25.00    
  12    27.32       27.27       27.18       27.05       26.89       26.72       26.53       26.34       26.16       25.99    
        25.84       25.70       25.58       25.48       25.40       25.33       25.28       25.24       25.21       25.20    
        25.19       25.18       25.16       25.15       25.14       25.13       25.12       25.11       25.10       25.09    
        25.08       25.07       25.06       25.05       25.04       25.03       25.03       25.02       25.01       25.00    
  13    26.82       26.79       26.72       26.62       26.50       26.37       26.23       26.09       25.95       25.81    
        25.69       25.58       25.49       25.41       25.34       25.29       25.25       25.22       25.20       25.19    
        25.18       25.17       25.16       25.15       25.14       25.12       25.11       25.10       25.09       25.09    
        25.08       25.07       25.06       25.05       25.04       25.03       25.02       25.02       25.01       25.00    
  14    26.43       26.40       26.35       26.28       26.19       26.09       25.98       25.87       25.76       25.66    
        25.57       25.48       25.41       25.35       25.30       25.26       25.23       25.21       25.20       25.18    
        25.17       25.16       25.15       25.14       25.13       25.12       25.11       25.10       25.09       25.08    
        25.07       25.06       25.06       25.05       25.04       25.03       25.02       25.02       25.01       25.00    
  15    26.11       26.09       26.06       26.00       25.93       25.86       25.78       25.69       25.61       25.54    
        25.46       25.40       25.34       25.30       25.26       25.23       25.21       25.20       25.19       25.18    
        25.17       25.15       25.14       25.13       25.12       25.11       25.11       25.10       25.09       25.08    
        25.07       25.06       25.05       25.05       25.04       25.03       25.02       25.02       25.01       25.00    
  16    25.86       25.85       25.82       25.78       25.73       25.68       25.62       25.55       25.49       25.43    
        25.38       25.33       25.29       25.26       25.23       25.21       25.20       25.19       25.18       25.17    
        25.16       25.15       25.14       25.13       25.12       25.11       25.10       25.09       25.08       25.08    
        25.07       25.06       25.05       25.04       25.04       25.03       25.02       25.01       25.01       25.00    
  17    25.67       25.66       25.64       25.61       25.57       25.53       25.49       25.44       25.40       25.35    
        25.32       25.28       25.25       25.23       25.21       25.20       25.19       25.18       25.17       25.16    
        25.15       25.14       25.13       25.12       25.11       25.11       25.10       25.09       25.08       25.07    
        25.06       25.06       25.05       25.04       25.04       25.03       25.02       25.01       25.01       25.00    
  18    25.52       25.51       25.50       25.48       25.45       25.42       25.39       25.36       25.32       25.29    
        25.27       25.24       25.22       25.21       25.20       25.19       25.18       25.17       25.16       25.15    
        25.14       25.13       25.13       25.12       25.11       25.10       25.09       25.08       25.08       25.07    
        25.06       25.05       25.05       25.04       25.03       25.03       25.02       25.01       25.01       25.00    
  19    25.41       25.40       25.39       25.38       25.36       25.34       25.31       25.29       25.27       25.25    
        25.23       25.21       25.20       25.20       25.19       25.18       25.17       25.16       25.15       25.14    
        25.14       25.13       25.12       25.11       25.10       25.10       25.09       25.08       25.07       25.07    
        25.06       25.05       25.05       25.04       25.03       25.03       25.02       25.01       25.01       25.00    
  20    25.33       25.32       25.31       25.30       25.29       25.28       25.26       25.25       25.23       25.22    
        25.21       25.20       25.19       25.18       25.18       25.17       25.16       25.15       25.14       25.14    
        25.13       25.12       25.11       25.11       25.10       25.09       25.08       25.08       25.07       25.06    
        25.06       25.05       25.04       25.04       25.03       25.02       25.02       25.01       25.01       25.00    
  21    25.27       25.27       25.26       25.25       25.24       25.23       25.23       25.22       25.21       25.20    
        25.20       25.19       25.18       25.17       25.17       25.16       25.15       25.14       25.14       25.13    
        25.12       25.11       25.11       25.10       25.09       25.09       25.08       25.07       25.07       25.06    
        25.05       25.05       25.04       25.04       25.03       25.02       25.02       25.01       25.01       25.00    
  22    25.23       25.23       25.22       25.22       25.21       25.21       25.21       25.20       25.20       25.19    
        25.18       25.18       25.17       25.16       25.15       25.15       25.14       25.13       25.13       25.12    
        25.11       25.11       25.10       25.09       25.09       25.08       25.07       25.07       25.06       25.06    
        25.05       25.04       25.04       25.03       25.03       25.02       25.02       25.01       25.01       25.00    
  23    25.21       25.21       25.21       25.20       25.20       25.20       25.19       25.19       25.18       25.18    
        25.17       25.16       25.16       25.15       25.14       25.14       25.13       25.13       25.12       25.11    
        25.11       25.10       25.09       25.09       25.08       25.08       25.07       25.06       25.06       25.05    
        25.05       25.04       25.04       25.03       25.03       25.02       25.02       25.01       25.01       25.00    
  24    25.19       25.19       25.19       25.19       25.18       25.18       25.18       25.17       25.17       25.16    
        25.16       25.15       25.15       25.14       25.13       25.13       25.12       25.12       25.11       25.11    
        25.10       25.09       25.09       25.08       25.08       25.07       25.07       25.06       25.05       25.05    
        25.04       25.04       25.03       25.03       25.02       25.02       25.01       25.01       25.00       25.00    
  25    25.18       25.18       25.17       25.17       25.17       25.17       25.16       25.16       25.15       25.15    
        25.15       25.14       25.14       25.13       25.12       25.12       25.11       25.11       25.10       25.10    
        25.09       25.09       25.08       25.08       25.07       25.07       25.06       25.06       25.05       25.05    
        25.04       25.04       25.03       25.03       25.02       25.02       25.01       25.01       25.00       25.00    
  26    25.16       25.16       25.16       25.16       25.16       25.15       25.15       25.15       25.14       25.14    
        25.13       25.13       25.12       25.12       25.11       25.11       25.11       25.10       25.10       25.09    
        25.09       25.08       25.08       25.07       25.07       25.06       25.06       25.05       25.05       25.04    
        25.04       25.03       25.03       25.03       25.02       25.02       25.01       25.01       25.00       25.00    
  27    25.15       25.15       25.15       25.14       25.14       25.14       25.14       25.13       25.13       25.13    
        25.12       25.12       25.11       25.11       25.11       25.10       25.10       25.09       25.09       25.08    
        25.08       25.07       25.07       25.07       25.06       25.06       25.05       25.05       25.04       25.04    
        25.04       25.03       25.03       25.02       25.02       25.02       25.01       25.01       25.00       25.00    
  28    25.13       25.13       25.13       25.13       25.13       25.13       25.12       25.12       25.12       25.11    
        25.11       25.11       25.10       25.10       25.10       25.09       25.09       25.08       25.08       25.08    
        25.07       25.07       25.06       25.06       25.06       25.05       25.05       25.04       25.04       25.04    
        25.03       25.03       25.03       25.02       25.02       25.01       25.01       25.01       25.00       25.00    
  29    25.12       25.12       25.12       25.12       25.12       25.11       25.11       25.11       25.11       25.10    
        25.10       25.10       25.09       25.09       25.09       25.08       25.08       25.08       25.07       25.07    
        25.07       25.06       25.06       25.05       25.05       25.05       25.04       25.04       25.04       25.03    
        25.03       25.03       25.02       25.02       25.02       25.01       25.01       25.01       25.00       25.00    
  30    25.11       25.11       25.11       25.11       25.10       25.10       25.10       25.10       25.10       25.09    
        25.09       25.09       25.09       25.08       25.08       25.08       25.07       25.07       25.07       25.06    
        25.06       25.06       25.05       25.05       25.05       25.04       25.04       25.04       25.03       25.03    
        25.03       25.02       25.02       25.02       25.02       25.01       25.01       25.01       25.00       25.00    
  31    25.10       25.09       25.09       25.09       25.09       25.09       25.09       25.09       25.09       25.08    
        25.08       25.08       25.08       25.07       25.07       25.07       25.06       25.06       25.06       25.06    
        25.05       25.05       25.05       25.04       25.04       25.04       25.04       25.03       25.03       25.03    
        25.02       25.02       25.02       25.02       25.01       25.01       25.01       25.01       25.00       25.00    
  32    25.08       25.08       25.08       25.08       25.08       25.08       25.08       25.08       25.08       25.07    
        25.07       25.07       25.07       25.06       25.06       25.06       25.06       25.05       25.05       25.05    
        25.05       25.04       25.04       25.04       25.04       25.03       25.03       25.03       25.03       25.02    
        25.02       25.02       25.02       25.01       25.01       25.01       25.01       25.00       25.00       25.00    
  33    25.07       25.07       25.07       25.07       25.07       25.07       25.07       25.07       25.07       25.06    
        25.06       25.06       25.06       25.06       25.05       25.05       25.05       25.05       25.05       25.04    
        25.04       25.04       25.04       25.03       25.03       25.03       25.03       25.03       25.02       25.02    
        25.02       25.02       25.01       25.01       25.01       25.01       25.01       25.00       25.00       25.00    
  34    25.06       25.06       25.06       25.06       25.06       25.06       25.06       25.06       25.06       25.05    
        25.05       25.05       25.05       25.05       25.05       25.04       25.04       25.04       25.04       25.04    
        25.04       25.03       25.03       25.03       25.03       25.03       25.02       25.02       25.02       25.02    
        25.02       25.01       25.01       25.01       25.01       25.01       25.01       25.00       25.00       25.00    
  35    25.05       25.05       25.05       25.05       25.05       25.05       25.05       25.05       25.05       25.04    
        25.04       25.04       25.04       25.04       25.04       25.04       25.04       25.03       25.03       25.03    
        25.03       25.03       25.03       25.02       25.02       25.02       25.02       25.02       25.02       25.02    
        25.01       25.01       25.01       25.01       25.01       25.01       25.00       25.00       25.00       25.00    
  36    25.04       25.04       25.04       25.04       25.04       25.04       25.04       25.04       25.04       25.04    
        25.03       25.03       25.03       25.03       25.03       25.03       25.03       25.03       25.03       25.02    
        25.02       25.02       25.02       25.02       25.02       25.02       25.02       25.01       25.01       25.01    
        25.01       25.01       25.01       25.01       25.01       25.00       25.00       25.00       25.00       25.00    
  37    25.03       25.03       25.03       25.03       25.03       25.03       25.03       25.03       25.03       25.03    
        25.03       25.03       25.02       25.02       25.02       25.02       25.02       25.02       25.02       25.02    
        25.02       25.02       25.02       25.01       25.01       25.01       25.01       25.01       25.01       25.01    
        25.01       25.01       25.01       25.01       25.00       25.00       25.00       25.00       25.00       25.00    
  38    25.02       25.02       25.02       25.02       25.02       25.02       25.02       25.02       25.02       25.02    
        25.02       25.02       25.02       25.02       25.02       25.01       25.01       25.01       25.01       25.01    
        25.01       25.01       25.01       25.01       25.01       25.01       25.01       25.01       25.01       25.01    
        25.01       25.00       25.00       25.00       25.00       25.00       25.00       25.00       25.00       25.00    
  39    25.01       25.01       25.01       25.01       25.01       25.01       25.01       25.01       25.01       25.01    
        25.01       25.01       25.01       25.01       25.01       25.01       25.01       25.01       25.01       25.01    
        25.01       25.01       25.01       25.00       25.00       25.00       25.00       25.00       25.00       25.00    
        25.00       25.00       25.00       25.00       25.00       25.00       25.00       25.00       25.00       25.00    
  40    25.00       25.00       25.00       25.00       25.00       25.00       25.00       25.00       25.00       25.00    
        25.00       25.00       25.00       25.00       25.00       25.00       25.00       25.00       25.00       25.00    
        25.00       25.00       25.00       25.00       25.00       25.00       25.00       25.00       25.00       25.00    
        25.00       25.00       25.00       25.00       25.00       25.00       25.00       25.00       25.00       25.00    
1
              HEAD IN LAYER  11 AT END OF TIME STEP   2 IN STRESS PERIOD    3
  ---------------------------------------------------------------------------

            1           2           3           4           5           6           7           8           9          10
           11          12          13          14          15          16          17          18          19          20
           21          22          23          24          25          26          27          28          29          30
           31          32          33          34          35          36          37          38          39          40
 ........................................................................................................................
   1    46.12       44.53       41.16       38.17       35.73       33.74       32.10       30.74       29.61       28.69    
        27.94       27.33       26.83       26.43       26.12       25.87       25.67       25.52       25.41       25.33    
        25.27       25.23       25.21       25.19       25.18       25.16       25.15       25.13       25.12       25.11    
        25.10       25.08       25.07       25.06       25.05       25.04       25.03       25.02       25.01       25.00    
   2    44.53       43.14       40.15       37.51       35.27       33.43       31.88       30.58       29.50       28.61    
        27.88       27.28       26.80       26.41       26.10       25.85       25.66       25.52       25.41       25.32    
        25.27       25.23       25.21       25.19       25.18       25.16       25.15       25.13       25.12       25.11    
        25.09       25.08       25.07       25.06       25.05       25.04       25.03       25.02       25.01       25.00    
   3    41.16       40.15       38.26       36.28       34.45       32.85       31.47       30.28       29.28       28.44    
        27.75       27.19       26.73       26.36       26.06       25.83       25.64       25.50       25.40       25.32    
        25.26       25.23       25.21       25.19       25.17       25.16       25.15       25.13       25.12       25.11    
        25.09       25.08       25.07       25.06       25.05       25.04       25.03       25.02       25.01       25.00    
   4    38.17       37.51       36.28       34.84       33.43       32.10       30.91       29.86       28.97       28.21    
        27.58       27.06       26.63       26.28       26.01       25.79       25.61       25.48       25.38       25.31    
        25.25       25.22       25.20       25.19       25.17       25.16       25.14       25.13       25.12       25.11    
        25.09       25.08       25.07       25.06       25.05       25.04       25.03       25.02       25.01       25.00    
   5    35.73       35.27       34.45       33.43       32.34       31.28       30.28       29.39       28.60       27.94    
        27.37       26.90       26.51       26.20       25.94       25.74       25.58       25.45       25.36       25.29    
        25.25       25.22       25.20       25.18       25.17       25.16       25.14       25.13       25.12       25.10    
        25.09       25.08       25.07       25.06       25.05       25.04       25.03       25.02       25.01       25.00    
   6    33.74       33.43       32.85       32.10       31.28       30.44       29.62       28.87       28.21       27.63    
        27.14       26.72       26.38       26.09       25.86       25.68       25.54       25.42       25.34       25.28    
        25.24       25.21       25.20       25.18       25.17       25.15       25.14       25.13       25.11       25.10    
        25.09       25.08       25.07       25.06       25.05       25.04       25.03       25.02       25.01       25.00    
   7    32.10       31.88       31.47       30.91       30.28       29.62       28.97       28.36       27.81       27.32    
        26.90       26.54       26.24       25.99       25.78       25.62       25.49       25.39       25.32       25.26    
        25.23       25.21       25.19       25.18       25.16       25.15       25.14       25.12       25.11       25.10    
        25.09       25.08       25.07       25.06       25.05       25.04       25.03       25.02       25.01       25.00    
   8    30.74       30.58       30.28       29.86       29.39       28.87       28.36       27.87       27.42       27.01    
        26.66       26.35       26.09       25.88       25.70       25.56       25.45       25.36       25.29       25.25    
        25.22       25.20       25.19       25.17       25.16       25.15       25.13       25.12       25.11       25.10    
        25.09       25.08       25.07       25.06       25.05       25.04       25.03       25.02       25.01       25.00    
   9    29.61       29.50       29.28       28.97       28.60       28.21       27.81       27.42       27.05       26.72    
        26.43       26.17       25.95       25.77       25.62       25.50       25.40       25.33       25.27       25.23    
        25.21       25.20       25.18       25.17       25.15       25.14       25.13       25.12       25.11       25.10    
        25.09       25.08       25.07       25.06       25.05       25.04       25.03       25.02       25.01       25.00    
  10    28.69       28.61       28.44       28.21       27.94       27.63       27.32       27.01       26.72       26.45    
        26.21       26.00       25.82       25.67       25.54       25.44       25.36       25.30       25.25       25.22    
        25.20       25.19       25.18       25.16       25.15       25.14       25.13       25.11       25.10       25.09    
        25.08       25.07       25.06       25.05       25.04       25.04       25.03       25.02       25.01       25.00    
  11    27.94       27.88       27.75       27.58       27.37       27.14       26.90       26.66       26.43       26.21    
        26.02       25.85       25.70       25.57       25.47       25.38       25.32       25.27       25.23       25.21    
        25.20       25.18       25.17       25.16       25.15       25.13       25.12       25.11       25.10       25.09    
        25.08       25.07       25.06       25.05       25.04       25.03       25.03       25.02       25.01       25.00    
  12    27.33       27.28       27.19       27.06       26.90       26.72       26.54       26.35       26.17       26.00    
        25.85       25.71       25.59       25.49       25.40       25.34       25.28       25.24       25.22       25.20    
        25.19       25.18       25.16       25.15       25.14       25.13       25.12       25.11       25.10       25.09    
        25.08       25.07       25.06       25.05       25.04       25.03       25.03       25.02       25.01       25.00    
  13    26.83       26.80       26.73       26.63       26.51       26.38       26.24       26.09       25.95       25.82    
        25.70       25.59       25.49       25.41       25.35       25.29       25.25       25.22       25.20       25.19    
        25.18       25.17       25.16       25.15       25.14       25.12       25.11       25.10       25.09       25.09    
        25.08       25.07       25.06       25.05       25.04       25.03       25.02       25.02       25.01       25.00    
  14    26.43       26.41       26.36       26.28       26.20       26.09       25.99       25.88       25.77       25.67    
        25.57       25.49       25.41       25.35       25.30       25.26       25.23       25.21       25.20       25.18    
        25.17       25.16       25.15       25.14       25.13       25.12       25.11       25.10       25.09       25.08    
        25.07       25.06       25.06       25.05       25.04       25.03       25.02       25.02       25.01       25.00    
  15    26.12       26.10       26.06       26.01       25.94       25.86       25.78       25.70       25.62       25.54    
        25.47       25.40       25.35       25.30       25.26       25.23       25.21       25.20       25.19       25.18    
        25.17       25.15       25.14       25.13       25.12       25.11       25.11       25.10       25.09       25.08    
        25.07       25.06       25.05       25.05       25.04       25.03       25.02       25.02       25.01       25.00    
  16    25.87       25.85       25.83       25.79       25.74       25.68       25.62       25.56       25.50       25.44    
        25.38       25.34       25.29       25.26       25.23       25.21       25.20       25.19       25.18       25.17    
        25.16       25.15       25.14       25.13       25.12       25.11       25.10       25.09       25.08       25.08    
        25.07       25.06       25.05       25.04       25.04       25.03       25.02       25.01       25.01       25.00    
  17    25.67       25.66       25.64       25.61       25.58       25.54       25.49       25.45       25.40       25.36    
        25.32       25.28       25.25       25.23       25.21       25.20       25.19       25.18       25.17       25.16    
        25.15       25.14       25.13       25.12       25.11       25.11       25.10       25.09       25.08       25.07    
        25.06       25.06       25.05       25.04       25.04       25.03       25.02       25.01       25.01       25.00    
  18    25.52       25.52       25.50       25.48       25.45       25.42       25.39       25.36       25.33       25.30    
        25.27       25.24       25.22       25.21       25.20       25.19       25.18       25.17       25.16       25.15    
        25.14       25.13       25.13       25.12       25.11       25.10       25.09       25.08       25.08       25.07    
        25.06       25.05       25.05       25.04       25.03       25.03       25.02       25.01       25.01       25.00    
  19    25.41       25.41       25.40       25.38       25.36       25.34       25.32       25.29       25.27       25.25    
        25.23       25.22       25.20       25.20       25.19       25.18       25.17       25.16       25.15       25.14    
        25.14       25.13       25.12       25.11       25.10       25.10       25.09       25.08       25.07       25.07    
        25.06       25.05       25.05       25.04       25.03       25.03       25.02       25.01       25.01       25.00    
  20    25.33       25.32       25.32       25.31       25.29       25.28       25.26       25.25       25.23       25.22    
        25.21       25.20       25.19       25.18       25.18       25.17       25.16       25.15       25.14       25.14    
        25.13       25.12       25.11       25.11       25.10       25.09       25.08       25.08       25.07       25.06    
        25.06       25.05       25.04       25.04       25.03       25.02       25.02       25.01       25.01       25.00    
  21    25.27       25.27       25.26       25.25       25.25       25.24       25.23       25.22       25.21       25.20    
        25.20       25.19       25.18       25.17       25.17       25.16       25.15       25.14       25.14       25.13    
        25.12       25.11       25.11       25.10       25.09       25.09       25.08       25.07       25.07       25.06    
        25.05       25.05       25.04       25.04       25.03       25.02       25.02       25.01       25.01       25.00    
  22    25.23       25.23       25.23       25.22       25.22       25.21       25.21       25.20       25.20       25.19    
        25.18       25.18       25.17       25.16       25.15       25.15       25.14       25.13       25.13       25.12    
        25.11       25.11       25.10       25.09       25.09       25.08       25.07       25.07       25.06       25.06    
        25.05       25.04       25.04       25.03       25.03       25.02       25.02       25.01       25.01       25.00    
  23    25.21       25.21       25.21       25.20       25.20       25.20       25.19       25.19       25.18       25.18    
        25.17       25.16       25.16       25.15       25.14       25.14       25.13       25.13       25.12       25.11    
        25.11       25.10       25.09       25.09       25.08       25.08       25.07       25.06       25.06       25.05    
        25.05       25.04       25.04       25.03       25.03       25.02       25.02       25.01       25.01       25.00    
  24    25.19       25.19       25.19       25.19       25.18       25.18       25.18       25.17       25.17       25.16    
        25.16       25.15       25.15       25.14       25.13       25.13       25.12       25.12       25.11       25.11    
        25.10       25.09       25.09       25.08       25.08       25.07       25.07       25.06       25.05       25.05    
        25.04       25.04       25.03       25.03       25.02       25.02       25.01       25.01       25.00       25.00    
  25    25.18       25.18       25.17       25.17       25.17       25.17       25.16       25.16       25.15       25.15    
        25.15       25.14       25.14       25.13       25.12       25.12       25.11       25.11       25.10       25.10    
        25.09       25.09       25.08       25.08       25.07       25.07       25.06       25.06       25.05       25.05    
        25.04       25.04       25.03       25.03       25.02       25.02       25.01       25.01       25.00       25.00    
  26    25.16       25.16       25.16       25.16       25.16       25.15       25.15       25.15       25.14       25.14    
        25.13       25.13       25.12       25.12       25.11       25.11       25.11       25.10       25.10       25.09    
        25.09       25.08       25.08       25.07       25.07       25.06       25.06       25.05       25.05       25.04    
        25.04       25.03       25.03       25.03       25.02       25.02       25.01       25.01       25.00       25.00    
  27    25.15       25.15       25.15       25.14       25.14       25.14       25.14       25.13       25.13       25.13    
        25.12       25.12       25.11       25.11       25.11       25.10       25.10       25.09       25.09       25.08    
        25.08       25.07       25.07       25.07       25.06       25.06       25.05       25.05       25.04       25.04    
        25.04       25.03       25.03       25.02       25.02       25.02       25.01       25.01       25.00       25.00    
  28    25.13       25.13       25.13       25.13       25.13       25.13       25.12       25.12       25.12       25.11    
        25.11       25.11       25.10       25.10       25.10       25.09       25.09       25.08       25.08       25.08    
        25.07       25.07       25.06       25.06       25.06       25.05       25.05       25.04       25.04       25.04    
        25.03       25.03       25.03       25.02       25.02       25.01       25.01       25.01       25.00       25.00    
  29    25.12       25.12       25.12       25.12       25.12       25.11       25.11       25.11       25.11       25.10    
        25.10       25.10       25.09       25.09       25.09       25.08       25.08       25.08       25.07       25.07    
        25.07       25.06       25.06       25.05       25.05       25.05       25.04       25.04       25.04       25.03    
        25.03       25.03       25.02       25.02       25.02       25.01       25.01       25.01       25.00       25.00    
  30    25.11       25.11       25.11       25.11       25.10       25.10       25.10       25.10       25.10       25.09    
        25.09       25.09       25.09       25.08       25.08       25.08       25.07       25.07       25.07       25.06    
        25.06       25.06       25.05       25.05       25.05       25.04       25.04       25.04       25.03       25.03    
        25.03       25.02       25.02       25.02       25.02       25.01       25.01       25.01       25.00       25.00    
  31    25.10       25.09       25.09       25.09       25.09       25.09       25.09       25.09       25.09       25.08    
        25.08       25.08       25.08       25.07       25.07       25.07       25.06       25.06       25.06       25.06    
        25.05       25.05       25.05       25.04       25.04       25.04       25.04       25.03       25.03       25.03    
        25.02       25.02       25.02       25.02       25.01       25.01       25.01       25.01       25.00       25.00    
  32    25.08       25.08       25.08       25.08       25.08       25.08       25.08       25.08       25.08       25.07    
        25.07       25.07       25.07       25.06       25.06       25.06       25.06       25.05       25.05       25.05    
        25.05       25.04       25.04       25.04       25.04       25.03       25.03       25.03       25.03       25.02    
        25.02       25.02       25.02       25.01       25.01       25.01       25.01       25.00       25.00       25.00    
  33    25.07       25.07       25.07       25.07       25.07       25.07       25.07       25.07       25.07       25.06    
        25.06       25.06       25.06       25.06       25.05       25.05       25.05       25.05       25.05       25.04    
        25.04       25.04       25.04       25.03       25.03       25.03       25.03       25.03       25.02       25.02    
        25.02       25.02       25.01       25.01       25.01       25.01       25.01       25.00       25.00       25.00    
  34    25.06       25.06       25.06       25.06       25.06       25.06       25.06       25.06       25.06       25.05    
        25.05       25.05       25.05       25.05       25.05       25.04       25.04       25.04       25.04       25.04    
        25.04       25.03       25.03       25.03       25.03       25.03       25.02       25.02       25.02       25.02    
        25.02       25.01       25.01       25.01       25.01       25.01       25.01       25.00       25.00       25.00    
  35    25.05       25.05       25.05       25.05       25.05       25.05       25.05       25.05       25.05       25.04    
        25.04       25.04       25.04       25.04       25.04       25.04       25.04       25.03       25.03       25.03    
        25.03       25.03       25.03       25.02       25.02       25.02       25.02       25.02       25.02       25.02    
        25.01       25.01       25.01       25.01       25.01       25.01       25.00       25.00       25.00       25.00    
  36    25.04       25.04       25.04       25.04       25.04       25.04       25.04       25.04       25.04       25.04    
        25.03       25.03       25.03       25.03       25.03       25.03       25.03       25.03       25.03       25.02    
        25.02       25.02       25.02       25.02       25.02       25.02       25.02       25.01       25.01       25.01    
        25.01       25.01       25.01       25.01       25.01       25.00       25.00       25.00       25.00       25.00    
  37    25.03       25.03       25.03       25.03       25.03       25.03       25.03       25.03       25.03       25.03    
        25.03       25.03       25.02       25.02       25.02       25.02       25.02       25.02       25.02       25.02    
        25.02       25.02       25.02       25.01       25.01       25.01       25.01       25.01       25.01       25.01    
        25.01       25.01       25.01       25.01       25.00       25.00       25.00       25.00       25.00       25.00    
  38    25.02       25.02       25.02       25.02       25.02       25.02       25.02       25.02       25.02       25.02    
        25.02       25.02       25.02       25.02       25.02       25.01       25.01       25.01       25.01       25.01    
        25.01       25.01       25.01       25.01       25.01       25.01       25.01       25.01       25.01       25.01    
        25.01       25.00       25.00       25.00       25.00       25.00       25.00       25.00       25.00       25.00    
  39    25.01       25.01       25.01       25.01       25.01       25.01       25.01       25.01       25.01       25.01    
        25.01       25.01       25.01       25.01       25.01       25.01       25.01       25.01       25.01       25.01    
        25.01       25.01       25.01       25.00       25.00       25.00       25.00       25.00       25.00       25.00    
        25.00       25.00       25.00       25.00       25.00       25.00       25.00       25.00       25.00       25.00    
  40    25.00       25.00       25.00       25.00       25.00       25.00       25.00       25.00       25.00       25.00    
        25.00       25.00       25.00       25.00       25.00       25.00       25.00       25.00       25.00       25.00    
        25.00       25.00       25.00       25.00       25.00       25.00       25.00       25.00       25.00       25.00    
        25.00       25.00       25.00       25.00       25.00       25.00       25.00       25.00       25.00       25.00    
1
              HEAD IN LAYER  12 AT END OF TIME STEP   2 IN STRESS PERIOD    3
  ---------------------------------------------------------------------------

            1           2           3           4           5           6           7           8           9          10
           11          12          13          14          15          16          17          18          19          20
           21          22          23          24          25          26          27          28          29          30
           31          32          33          34          35          36          37          38          39          40
 ........................................................................................................................
   1    45.82       44.26       41.08       38.16       35.73       33.74       32.11       30.75       29.62       28.70    
        27.95       27.33       26.84       26.44       26.12       25.87       25.68       25.53       25.41       25.33    
        25.27       25.23       25.21       25.19       25.18       25.16       25.15       25.13       25.12       25.11    
        25.10       25.08       25.07       25.06       25.05       25.04       25.03       25.02       25.01       25.00    
   2    44.26       42.88       40.08       37.49       35.27       33.43       31.88       30.59       29.51       28.61    
        27.88       27.29       26.80       26.41       26.10       25.86       25.67       25.52       25.41       25.33    
        25.27       25.23       25.21       25.19       25.18       25.16       25.15       25.13       25.12       25.11    
        25.09       25.08       25.07       25.06       25.05       25.04       25.03       25.02       25.01       25.00    
   3    41.08       40.08       38.23       36.27       34.45       32.85       31.47       30.29       29.28       28.45    
        27.76       27.19       26.73       26.36       26.07       25.83       25.65       25.50       25.40       25.32    
        25.26       25.23       25.21       25.19       25.17       25.16       25.15       25.13       25.12       25.11    
        25.09       25.08       25.07       25.06       25.05       25.04       25.03       25.02       25.01       25.00    
   4    38.16       37.49       36.27       34.84       33.43       32.11       30.92       29.87       28.98       28.22    
        27.59       27.06       26.64       26.29       26.01       25.79       25.62       25.48       25.38       25.31    
        25.26       25.22       25.20       25.19       25.17       25.16       25.14       25.13       25.12       25.11    
        25.09       25.08       25.07       25.06       25.05       25.04       25.03       25.02       25.01       25.00    
   5    35.73       35.27       34.45       33.43       32.35       31.29       30.29       29.39       28.61       27.94    
        27.38       26.91       26.52       26.20       25.94       25.74       25.58       25.46       25.36       25.29    
        25.25       25.22       25.20       25.18       25.17       25.16       25.14       25.13       25.12       25.10    
        25.09       25.08       25.07       25.06       25.05       25.04       25.03       25.02       25.01       25.00    
   6    33.74       33.43       32.85       32.11       31.29       30.45       29.63       28.88       28.22       27.64    
        27.14       26.73       26.38       26.10       25.87       25.68       25.54       25.43       25.34       25.28    
        25.24       25.21       25.20       25.18       25.17       25.15       25.14       25.13       25.11       25.10    
        25.09       25.08       25.07       25.06       25.05       25.04       25.03       25.02       25.01       25.00    
   7    32.11       31.88       31.47       30.92       30.29       29.63       28.98       28.37       27.81       27.33    
        26.90       26.54       26.24       25.99       25.79       25.62       25.49       25.39       25.32       25.26    
        25.23       25.21       25.19       25.18       25.16       25.15       25.14       25.12       25.11       25.10    
        25.09       25.08       25.07       25.06       25.05       25.04       25.03       25.02       25.01       25.00    
   8    30.75       30.59       30.29       29.87       29.39       28.88       28.37       27.88       27.42       27.02    
        26.66       26.36       26.10       25.88       25.70       25.56       25.45       25.36       25.30       25.25    
        25.22       25.20       25.19       25.17       25.16       25.15       25.13       25.12       25.11       25.10    
        25.09       25.08       25.07       25.06       25.05       25.04       25.03       25.02       25.01       25.00    
   9    29.62       29.51       29.28       28.98       28.61       28.22       27.81       27.42       27.06       26.73    
        26.43       26.17       25.96       25.77       25.62       25.50       25.40       25.33       25.27       25.23    
        25.21       25.20       25.18       25.17       25.15       25.14       25.13       25.12       25.11       25.10    
        25.09       25.08       25.07       25.06       25.05       25.04       25.03       25.02       25.01       25.00    
  10    28.70       28.61       28.45       28.22       27.94       27.64       27.33       27.02       26.73       26.46    
        26.22       26.00       25.82       25.67       25.54       25.44       25.36       25.30       25.25       25.22    
        25.20       25.19       25.18       25.16       25.15       25.14       25.13       25.11       25.10       25.09    
        25.08       25.07       25.06       25.05       25.04       25.04       25.03       25.02       25.01       25.00    
  11    27.95       27.88       27.76       27.59       27.38       27.14       26.90       26.66       26.43       26.22    
        26.02       25.85       25.70       25.57       25.47       25.39       25.32       25.27       25.23       25.21    
        25.20       25.18       25.17       25.16       25.15       25.13       25.12       25.11       25.10       25.09    
        25.08       25.07       25.06       25.05       25.04       25.03       25.03       25.02       25.01       25.00    
  12    27.33       27.29       27.19       27.06       26.91       26.73       26.54       26.36       26.17       26.00    
        25.85       25.71       25.59       25.49       25.41       25.34       25.28       25.24       25.22       25.20    
        25.19       25.18       25.16       25.15       25.14       25.13       25.12       25.11       25.10       25.09    
        25.08       25.07       25.06       25.05       25.04       25.03       25.03       25.02       25.01       25.00    
  13    26.84       26.80       26.73       26.64       26.52       26.38       26.24       26.10       25.96       25.82    
        25.70       25.59       25.50       25.42       25.35       25.30       25.25       25.22       25.20       25.19    
        25.18       25.17       25.16       25.15       25.14       25.12       25.11       25.10       25.09       25.09    
        25.08       25.07       25.06       25.05       25.04       25.03       25.02       25.02       25.01       25.00    
  14    26.44       26.41       26.36       26.29       26.20       26.10       25.99       25.88       25.77       25.67    
        25.57       25.49       25.42       25.35       25.30       25.26       25.23       25.21       25.20       25.18    
        25.17       25.16       25.15       25.14       25.13       25.12       25.11       25.10       25.09       25.08    
        25.07       25.06       25.06       25.05       25.04       25.03       25.02       25.02       25.01       25.00    
  15    26.12       26.10       26.07       26.01       25.94       25.87       25.79       25.70       25.62       25.54    
        25.47       25.41       25.35       25.30       25.26       25.23       25.21       25.20       25.19       25.18    
        25.17       25.15       25.14       25.13       25.12       25.11       25.11       25.10       25.09       25.08    
        25.07       25.06       25.05       25.05       25.04       25.03       25.02       25.02       25.01       25.00    
  16    25.87       25.86       25.83       25.79       25.74       25.68       25.62       25.56       25.50       25.44    
        25.39       25.34       25.30       25.26       25.23       25.22       25.20       25.19       25.18       25.17    
        25.16       25.15       25.14       25.13       25.12       25.11       25.10       25.09       25.08       25.08    
        25.07       25.06       25.05       25.04       25.04       25.03       25.02       25.01       25.01       25.00    
  17    25.68       25.67       25.65       25.62       25.58       25.54       25.49       25.45       25.40       25.36    
        25.32       25.28       25.25       25.23       25.21       25.20       25.19       25.18       25.17       25.16    
        25.15       25.14       25.13       25.12       25.11       25.11       25.10       25.09       25.08       25.07    
        25.06       25.06       25.05       25.04       25.04       25.03       25.02       25.01       25.01       25.00    
  18    25.53       25.52       25.50       25.48       25.46       25.43       25.39       25.36       25.33       25.30    
        25.27       25.24       25.22       25.21       25.20       25.19       25.18       25.17       25.16       25.15    
        25.14       25.13       25.13       25.12       25.11       25.10       25.09       25.08       25.08       25.07    
        25.06       25.05       25.05       25.04       25.03       25.03       25.02       25.01       25.01       25.00    
  19    25.41       25.41       25.40       25.38       25.36       25.34       25.32       25.30       25.27       25.25    
        25.23       25.22       25.20       25.20       25.19       25.18       25.17       25.16       25.15       25.14    
        25.14       25.13       25.12       25.11       25.10       25.10       25.09       25.08       25.07       25.07    
        25.06       25.05       25.05       25.04       25.03       25.03       25.02       25.01       25.01       25.00    
  20    25.33       25.33       25.32       25.31       25.29       25.28       25.26       25.25       25.23       25.22    
        25.21       25.20       25.19       25.18       25.18       25.17       25.16       25.15       25.14       25.14    
        25.13       25.12       25.11       25.11       25.10       25.09       25.08       25.08       25.07       25.06    
        25.06       25.05       25.04       25.04       25.03       25.02       25.02       25.01       25.01       25.00    
  21    25.27       25.27       25.26       25.26       25.25       25.24       25.23       25.22       25.21       25.20    
        25.20       25.19       25.18       25.17       25.17       25.16       25.15       25.14       25.14       25.13    
        25.12       25.11       25.11       25.10       25.09       25.09       25.08       25.07       25.07       25.06    
        25.05       25.05       25.04       25.04       25.03       25.02       25.02       25.01       25.01       25.00    
  22    25.23       25.23       25.23       25.22       25.22       25.21       25.21       25.20       25.20       25.19    
        25.18       25.18       25.17       25.16       25.15       25.15       25.14       25.13       25.13       25.12    
        25.11       25.11       25.10       25.09       25.09       25.08       25.07       25.07       25.06       25.06    
        25.05       25.04       25.04       25.03       25.03       25.02       25.02       25.01       25.01       25.00    
  23    25.21       25.21       25.21       25.20       25.20       25.20       25.19       25.19       25.18       25.18    
        25.17       25.16       25.16       25.15       25.14       25.14       25.13       25.13       25.12       25.11    
        25.11       25.10       25.09       25.09       25.08       25.08       25.07       25.06       25.06       25.05    
        25.05       25.04       25.04       25.03       25.03       25.02       25.02       25.01       25.01       25.00    
  24    25.19       25.19       25.19       25.19       25.18       25.18       25.18       25.17       25.17       25.16    
        25.16       25.15       25.15       25.14       25.13       25.13       25.12       25.12       25.11       25.11    
        25.10       25.09       25.09       25.08       25.08       25.07       25.07       25.06       25.05       25.05    
        25.04       25.04       25.03       25.03       25.02       25.02       25.01       25.01       25.00       25.00    
  25    25.18       25.18       25.17       25.17       25.17       25.17       25.16       25.16       25.15       25.15    
        25.15       25.14       25.14       25.13       25.12       25.12       25.11       25.11       25.10       25.10    
        25.09       25.09       25.08       25.08       25.07       25.07       25.06       25.06       25.05       25.05    
        25.04       25.04       25.03       25.03       25.02       25.02       25.01       25.01       25.00       25.00    
  26    25.16       25.16       25.16       25.16       25.16       25.15       25.15       25.15       25.14       25.14    
        25.13       25.13       25.12       25.12       25.11       25.11       25.11       25.10       25.10       25.09    
        25.09       25.08       25.08       25.07       25.07       25.06       25.06       25.05       25.05       25.04    
        25.04       25.03       25.03       25.03       25.02       25.02       25.01       25.01       25.00       25.00    
  27    25.15       25.15       25.15       25.14       25.14       25.14       25.14       25.13       25.13       25.13    
        25.12       25.12       25.11       25.11       25.11       25.10       25.10       25.09       25.09       25.08    
        25.08       25.07       25.07       25.07       25.06       25.06       25.05       25.05       25.04       25.04    
        25.04       25.03       25.03       25.02       25.02       25.02       25.01       25.01       25.00       25.00    
  28    25.13       25.13       25.13       25.13       25.13       25.13       25.12       25.12       25.12       25.11    
        25.11       25.11       25.10       25.10       25.10       25.09       25.09       25.08       25.08       25.08    
        25.07       25.07       25.06       25.06       25.06       25.05       25.05       25.04       25.04       25.04    
        25.03       25.03       25.03       25.02       25.02       25.01       25.01       25.01       25.00       25.00    
  29    25.12       25.12       25.12       25.12       25.12       25.11       25.11       25.11       25.11       25.10    
        25.10       25.10       25.09       25.09       25.09       25.08       25.08       25.08       25.07       25.07    
        25.07       25.06       25.06       25.05       25.05       25.05       25.04       25.04       25.04       25.03    
        25.03       25.03       25.02       25.02       25.02       25.01       25.01       25.01       25.00       25.00    
  30    25.11       25.11       25.11       25.11       25.10       25.10       25.10       25.10       25.10       25.09    
        25.09       25.09       25.09       25.08       25.08       25.08       25.07       25.07       25.07       25.06    
        25.06       25.06       25.05       25.05       25.05       25.04       25.04       25.04       25.03       25.03    
        25.03       25.02       25.02       25.02       25.02       25.01       25.01       25.01       25.00       25.00    
  31    25.10       25.09       25.09       25.09       25.09       25.09       25.09       25.09       25.09       25.08    
        25.08       25.08       25.08       25.07       25.07       25.07       25.06       25.06       25.06       25.06    
        25.05       25.05       25.05       25.04       25.04       25.04       25.04       25.03       25.03       25.03    
        25.02       25.02       25.02       25.02       25.01       25.01       25.01       25.01       25.00       25.00    
  32    25.08       25.08       25.08       25.08       25.08       25.08       25.08       25.08       25.08       25.07    
        25.07       25.07       25.07       25.06       25.06       25.06       25.06       25.05       25.05       25.05    
        25.05       25.04       25.04       25.04       25.04       25.03       25.03       25.03       25.03       25.02    
        25.02       25.02       25.02       25.01       25.01       25.01       25.01       25.00       25.00       25.00    
  33    25.07       25.07       25.07       25.07       25.07       25.07       25.07       25.07       25.07       25.06    
        25.06       25.06       25.06       25.06       25.05       25.05       25.05       25.05       25.05       25.04    
        25.04       25.04       25.04       25.03       25.03       25.03       25.03       25.03       25.02       25.02    
        25.02       25.02       25.01       25.01       25.01       25.01       25.01       25.00       25.00       25.00    
  34    25.06       25.06       25.06       25.06       25.06       25.06       25.06       25.06       25.06       25.05    
        25.05       25.05       25.05       25.05       25.05       25.04       25.04       25.04       25.04       25.04    
        25.04       25.03       25.03       25.03       25.03       25.03       25.02       25.02       25.02       25.02    
        25.02       25.01       25.01       25.01       25.01       25.01       25.01       25.00       25.00       25.00    
  35    25.05       25.05       25.05       25.05       25.05       25.05       25.05       25.05       25.05       25.04    
        25.04       25.04       25.04       25.04       25.04       25.04       25.04       25.03       25.03       25.03    
        25.03       25.03       25.03       25.02       25.02       25.02       25.02       25.02       25.02       25.02    
        25.01       25.01       25.01       25.01       25.01       25.01       25.00       25.00       25.00       25.00    
  36    25.04       25.04       25.04       25.04       25.04       25.04       25.04       25.04       25.04       25.04    
        25.03       25.03       25.03       25.03       25.03       25.03       25.03       25.03       25.03       25.02    
        25.02       25.02       25.02       25.02       25.02       25.02       25.02       25.01       25.01       25.01    
        25.01       25.01       25.01       25.01       25.01       25.00       25.00       25.00       25.00       25.00    
  37    25.03       25.03       25.03       25.03       25.03       25.03       25.03       25.03       25.03       25.03    
        25.03       25.03       25.02       25.02       25.02       25.02       25.02       25.02       25.02       25.02    
        25.02       25.02       25.02       25.01       25.01       25.01       25.01       25.01       25.01       25.01    
        25.01       25.01       25.01       25.01       25.00       25.00       25.00       25.00       25.00       25.00    
  38    25.02       25.02       25.02       25.02       25.02       25.02       25.02       25.02       25.02       25.02    
        25.02       25.02       25.02       25.02       25.02       25.01       25.01       25.01       25.01       25.01    
        25.01       25.01       25.01       25.01       25.01       25.01       25.01       25.01       25.01       25.01    
        25.01       25.00       25.00       25.00       25.00       25.00       25.00       25.00       25.00       25.00    
  39    25.01       25.01       25.01       25.01       25.01       25.01       25.01       25.01       25.01       25.01    
        25.01       25.01       25.01       25.01       25.01       25.01       25.01       25.01       25.01       25.01    
        25.01       25.01       25.01       25.00       25.00       25.00       25.00       25.00       25.00       25.00    
        25.00       25.00       25.00       25.00       25.00       25.00       25.00       25.00       25.00       25.00    
  40    25.00       25.00       25.00       25.00       25.00       25.00       25.00       25.00       25.00       25.00    
        25.00       25.00       25.00       25.00       25.00       25.00       25.00       25.00       25.00       25.00    
        25.00       25.00       25.00       25.00       25.00       25.00       25.00       25.00       25.00       25.00    
        25.00       25.00       25.00       25.00       25.00       25.00       25.00       25.00       25.00       25.00    
1
              HEAD IN LAYER  13 AT END OF TIME STEP   2 IN STRESS PERIOD    3
  ---------------------------------------------------------------------------

            1           2           3           4           5           6           7           8           9          10
           11          12          13          14          15          16          17          18          19          20
           21          22          23          24          25          26          27          28          29          30
           31          32          33          34          35          36          37          38          39          40
 ........................................................................................................................
   1    45.62       44.07       41.02       38.14       35.73       33.74       32.11       30.75       29.63       28.71    
        27.95       27.34       26.84       26.44       26.13       25.88       25.68       25.53       25.42       25.33    
        25.27       25.23       25.21       25.19       25.18       25.16       25.15       25.13       25.12       25.11    
        25.10       25.08       25.07       25.06       25.05       25.04       25.03       25.02       25.01       25.00    
   2    44.07       42.72       40.03       37.47       35.27       33.43       31.89       30.59       29.51       28.62    
        27.89       27.29       26.81       26.42       26.11       25.86       25.67       25.52       25.41       25.33    
        25.27       25.23       25.21       25.19       25.18       25.16       25.15       25.13       25.12       25.11    
        25.09       25.08       25.07       25.06       25.05       25.04       25.03       25.02       25.01       25.00    
   3    41.02       40.03       38.21       36.27       34.45       32.86       31.48       30.29       29.29       28.45    
        27.76       27.20       26.74       26.37       26.07       25.83       25.65       25.51       25.40       25.32    
        25.26       25.23       25.21       25.19       25.17       25.16       25.15       25.13       25.12       25.11    
        25.09       25.08       25.07       25.06       25.05       25.04       25.03       25.02       25.01       25.00    
   4    38.14       37.47       36.27       34.84       33.43       32.11       30.92       29.88       28.98       28.22    
        27.59       27.07       26.64       26.29       26.01       25.79       25.62       25.48       25.38       25.31    
        25.26       25.22       25.20       25.19       25.17       25.16       25.14       25.13       25.12       25.11    
        25.09       25.08       25.07       25.06       25.05       25.04       25.03       25.02       25.01       25.00    
   5    35.73       35.27       34.45       33.43       32.35       31.29       30.29       29.40       28.62       27.95    
        27.38       26.91       26.52       26.20       25.95       25.74       25.58       25.46       25.36       25.30    
        25.25       25.22       25.20       25.18       25.17       25.16       25.14       25.13       25.12       25.10    
        25.09       25.08       25.07       25.06       25.05       25.04       25.03       25.02       25.01       25.00    
   6    33.74       33.43       32.86       32.11       31.29       30.45       29.63       28.89       28.22       27.64    
        27.15       26.73       26.39       26.10       25.87       25.69       25.54       25.43       25.34       25.28    
        25.24       25.21       25.20       25.18       25.17       25.15       25.14       25.13       25.11       25.10    
        25.09       25.08       25.07       25.06       25.05       25.04       25.03       25.02       25.01       25.00    
   7    32.11       31.89       31.48       30.92       30.29       29.63       28.98       28.37       27.82       27.33    
        26.91       26.55       26.24       25.99       25.79       25.62       25.50       25.40       25.32       25.27    
        25.23       25.21       25.19       25.18       25.16       25.15       25.14       25.12       25.11       25.10    
        25.09       25.08       25.07       25.06       25.05       25.04       25.03       25.02       25.01       25.00    
   8    30.75       30.59       30.29       29.88       29.40       28.89       28.37       27.88       27.43       27.02    
        26.67       26.36       26.10       25.88       25.70       25.56       25.45       25.36       25.30       25.25    
        25.22       25.20       25.19       25.17       25.16       25.15       25.13       25.12       25.11       25.10    
        25.09       25.08       25.07       25.06       25.05       25.04       25.03       25.02       25.01       25.00    
   9    29.63       29.51       29.29       28.98       28.62       28.22       27.82       27.43       27.06       26.73    
        26.43       26.18       25.96       25.77       25.62       25.50       25.40       25.33       25.27       25.24    
        25.21       25.20       25.18       25.17       25.15       25.14       25.13       25.12       25.11       25.10    
        25.09       25.08       25.07       25.06       25.05       25.04       25.03       25.02       25.01       25.00    
  10    28.71       28.62       28.45       28.22       27.95       27.64       27.33       27.02       26.73       26.46    
        26.22       26.01       25.82       25.67       25.54       25.44       25.36       25.30       25.25       25.22    
        25.20       25.19       25.18       25.16       25.15       25.14       25.13       25.11       25.10       25.09    
        25.08       25.07       25.06       25.05       25.04       25.04       25.03       25.02       25.01       25.00    
  11    27.95       27.89       27.76       27.59       27.38       27.15       26.91       26.67       26.43       26.22    
        26.02       25.85       25.70       25.58       25.47       25.39       25.32       25.27       25.23       25.21    
        25.20       25.18       25.17       25.16       25.15       25.13       25.12       25.11       25.10       25.09    
        25.08       25.07       25.06       25.05       25.04       25.03       25.03       25.02       25.01       25.00    
  12    27.34       27.29       27.20       27.07       26.91       26.73       26.55       26.36       26.18       26.01    
        25.85       25.71       25.59       25.49       25.41       25.34       25.29       25.25       25.22       25.20    
        25.19       25.18       25.16       25.15       25.14       25.13       25.12       25.11       25.10       25.09    
        25.08       25.07       25.06       25.05       25.04       25.03       25.03       25.02       25.01       25.00    
  13    26.84       26.81       26.74       26.64       26.52       26.39       26.24       26.10       25.96       25.82    
        25.70       25.59       25.50       25.42       25.35       25.30       25.26       25.23       25.21       25.19    
        25.18       25.17       25.16       25.15       25.14       25.12       25.11       25.10       25.09       25.09    
        25.08       25.07       25.06       25.05       25.04       25.03       25.02       25.02       25.01       25.00    
  14    26.44       26.42       26.37       26.29       26.20       26.10       25.99       25.88       25.77       25.67    
        25.58       25.49       25.42       25.36       25.30       25.26       25.23       25.21       25.20       25.18    
        25.17       25.16       25.15       25.14       25.13       25.12       25.11       25.10       25.09       25.08    
        25.07       25.06       25.06       25.05       25.04       25.03       25.02       25.02       25.01       25.00    
  15    26.13       26.11       26.07       26.01       25.95       25.87       25.79       25.70       25.62       25.54    
        25.47       25.41       25.35       25.30       25.27       25.24       25.21       25.20       25.19       25.18    
        25.17       25.15       25.14       25.13       25.12       25.11       25.11       25.10       25.09       25.08    
        25.07       25.06       25.05       25.05       25.04       25.03       25.02       25.02       25.01       25.00    
  16    25.88       25.86       25.83       25.79       25.74       25.69       25.62       25.56       25.50       25.44    
        25.39       25.34       25.30       25.26       25.24       25.22       25.20       25.19       25.18       25.17    
        25.16       25.15       25.14       25.13       25.12       25.11       25.10       25.09       25.08       25.08    
        25.07       25.06       25.05       25.04       25.04       25.03       25.02       25.01       25.01       25.00    
  17    25.68       25.67       25.65       25.62       25.58       25.54       25.50       25.45       25.40       25.36    
        25.32       25.29       25.26       25.23       25.21       25.20       25.19       25.18       25.17       25.16    
        25.15       25.14       25.13       25.12       25.11       25.11       25.10       25.09       25.08       25.07    
        25.06       25.06       25.05       25.04       25.04       25.03       25.02       25.01       25.01       25.00    
  18    25.53       25.52       25.51       25.48       25.46       25.43       25.40       25.36       25.33       25.30    
        25.27       25.25       25.23       25.21       25.20       25.19       25.18       25.17       25.16       25.15    
        25.14       25.13       25.13       25.12       25.11       25.10       25.09       25.08       25.08       25.07    
        25.06       25.05       25.05       25.04       25.03       25.03       25.02       25.01       25.01       25.00    
  19    25.42       25.41       25.40       25.38       25.36       25.34       25.32       25.30       25.27       25.25    
        25.23       25.22       25.21       25.20       25.19       25.18       25.17       25.16       25.15       25.14    
        25.14       25.13       25.12       25.11       25.10       25.10       25.09       25.08       25.07       25.07    
        25.06       25.05       25.05       25.04       25.03       25.03       25.02       25.01       25.01       25.00    
  20    25.33       25.33       25.32       25.31       25.30       25.28       25.27       25.25       25.24       25.22    
        25.21       25.20       25.19       25.18       25.18       25.17       25.16       25.15       25.14       25.14    
        25.13       25.12       25.11       25.11       25.10       25.09       25.08       25.08       25.07       25.06    
        25.06       25.05       25.04       25.04       25.03       25.02       25.02       25.01       25.01       25.00    
  21    25.27       25.27       25.26       25.26       25.25       25.24       25.23       25.22       25.21       25.20    
        25.20       25.19       25.18       25.17       25.17       25.16       25.15       25.14       25.14       25.13    
        25.12       25.11       25.11       25.10       25.09       25.09       25.08       25.07       25.07       25.06    
        25.05       25.05       25.04       25.04       25.03       25.02       25.02       25.01       25.01       25.00    
  22    25.23       25.23       25.23       25.22       25.22       25.21       25.21       25.20       25.20       25.19    
        25.18       25.18       25.17       25.16       25.15       25.15       25.14       25.13       25.13       25.12    
        25.11       25.11       25.10       25.09       25.09       25.08       25.07       25.07       25.06       25.06    
        25.05       25.04       25.04       25.03       25.03       25.02       25.02       25.01       25.01       25.00    
  23    25.21       25.21       25.21       25.20       25.20       25.20       25.19       25.19       25.18       25.18    
        25.17       25.16       25.16       25.15       25.14       25.14       25.13       25.13       25.12       25.11    
        25.11       25.10       25.09       25.09       25.08       25.08       25.07       25.06       25.06       25.05    
        25.05       25.04       25.04       25.03       25.03       25.02       25.02       25.01       25.01       25.00    
  24    25.19       25.19       25.19       25.19       25.18       25.18       25.18       25.17       25.17       25.16    
        25.16       25.15       25.15       25.14       25.13       25.13       25.12       25.12       25.11       25.11    
        25.10       25.09       25.09       25.08       25.08       25.07       25.07       25.06       25.05       25.05    
        25.04       25.04       25.03       25.03       25.02       25.02       25.01       25.01       25.00       25.00    
  25    25.18       25.18       25.17       25.17       25.17       25.17       25.16       25.16       25.15       25.15    
        25.15       25.14       25.14       25.13       25.12       25.12       25.11       25.11       25.10       25.10    
        25.09       25.09       25.08       25.08       25.07       25.07       25.06       25.06       25.05       25.05    
        25.04       25.04       25.03       25.03       25.02       25.02       25.01       25.01       25.00       25.00    
  26    25.16       25.16       25.16       25.16       25.16       25.15       25.15       25.15       25.14       25.14    
        25.13       25.13       25.12       25.12       25.11       25.11       25.11       25.10       25.10       25.09    
        25.09       25.08       25.08       25.07       25.07       25.06       25.06       25.05       25.05       25.04    
        25.04       25.03       25.03       25.03       25.02       25.02       25.01       25.01       25.00       25.00    
  27    25.15       25.15       25.15       25.14       25.14       25.14       25.14       25.13       25.13       25.13    
        25.12       25.12       25.11       25.11       25.11       25.10       25.10       25.09       25.09       25.08    
        25.08       25.07       25.07       25.07       25.06       25.06       25.05       25.05       25.04       25.04    
        25.04       25.03       25.03       25.02       25.02       25.02       25.01       25.01       25.00       25.00    
  28    25.13       25.13       25.13       25.13       25.13       25.13       25.12       25.12       25.12       25.11    
        25.11       25.11       25.10       25.10       25.10       25.09       25.09       25.08       25.08       25.08    
        25.07       25.07       25.06       25.06       25.06       25.05       25.05       25.04       25.04       25.04    
        25.03       25.03       25.03       25.02       25.02       25.01       25.01       25.01       25.00       25.00    
  29    25.12       25.12       25.12       25.12       25.12       25.11       25.11       25.11       25.11       25.10    
        25.10       25.10       25.09       25.09       25.09       25.08       25.08       25.08       25.07       25.07    
        25.07       25.06       25.06       25.05       25.05       25.05       25.04       25.04       25.04       25.03    
        25.03       25.03       25.02       25.02       25.02       25.01       25.01       25.01       25.00       25.00    
  30    25.11       25.11       25.11       25.11       25.10       25.10       25.10       25.10       25.10       25.09    
        25.09       25.09       25.09       25.08       25.08       25.08       25.07       25.07       25.07       25.06    
        25.06       25.06       25.05       25.05       25.05       25.04       25.04       25.04       25.03       25.03    
        25.03       25.02       25.02       25.02       25.02       25.01       25.01       25.01       25.00       25.00    
  31    25.10       25.09       25.09       25.09       25.09       25.09       25.09       25.09       25.09       25.08    
        25.08       25.08       25.08       25.07       25.07       25.07       25.06       25.06       25.06       25.06    
        25.05       25.05       25.05       25.04       25.04       25.04       25.04       25.03       25.03       25.03    
        25.02       25.02       25.02       25.02       25.01       25.01       25.01       25.01       25.00       25.00    
  32    25.08       25.08       25.08       25.08       25.08       25.08       25.08       25.08       25.08       25.07    
        25.07       25.07       25.07       25.06       25.06       25.06       25.06       25.05       25.05       25.05    
        25.05       25.04       25.04       25.04       25.04       25.03       25.03       25.03       25.03       25.02    
        25.02       25.02       25.02       25.01       25.01       25.01       25.01       25.00       25.00       25.00    
  33    25.07       25.07       25.07       25.07       25.07       25.07       25.07       25.07       25.07       25.06    
        25.06       25.06       25.06       25.06       25.05       25.05       25.05       25.05       25.05       25.04    
        25.04       25.04       25.04       25.03       25.03       25.03       25.03       25.03       25.02       25.02    
        25.02       25.02       25.01       25.01       25.01       25.01       25.01       25.00       25.00       25.00    
  34    25.06       25.06       25.06       25.06       25.06       25.06       25.06       25.06       25.06       25.05    
        25.05       25.05       25.05       25.05       25.05       25.04       25.04       25.04       25.04       25.04    
        25.04       25.03       25.03       25.03       25.03       25.03       25.02       25.02       25.02       25.02    
        25.02       25.01       25.01       25.01       25.01       25.01       25.01       25.00       25.00       25.00    
  35    25.05       25.05       25.05       25.05       25.05       25.05       25.05       25.05       25.05       25.04    
        25.04       25.04       25.04       25.04       25.04       25.04       25.04       25.03       25.03       25.03    
        25.03       25.03       25.03       25.02       25.02       25.02       25.02       25.02       25.02       25.02    
        25.01       25.01       25.01       25.01       25.01       25.01       25.00       25.00       25.00       25.00    
  36    25.04       25.04       25.04       25.04       25.04       25.04       25.04       25.04       25.04       25.04    
        25.03       25.03       25.03       25.03       25.03       25.03       25.03       25.03       25.03       25.02    
        25.02       25.02       25.02       25.02       25.02       25.02       25.02       25.01       25.01       25.01    
        25.01       25.01       25.01       25.01       25.01       25.00       25.00       25.00       25.00       25.00    
  37    25.03       25.03       25.03       25.03       25.03       25.03       25.03       25.03       25.03       25.03    
        25.03       25.03       25.02       25.02       25.02       25.02       25.02       25.02       25.02       25.02    
        25.02       25.02       25.02       25.01       25.01       25.01       25.01       25.01       25.01       25.01    
        25.01       25.01       25.01       25.01       25.00       25.00       25.00       25.00       25.00       25.00    
  38    25.02       25.02       25.02       25.02       25.02       25.02       25.02       25.02       25.02       25.02    
        25.02       25.02       25.02       25.02       25.02       25.01       25.01       25.01       25.01       25.01    
        25.01       25.01       25.01       25.01       25.01       25.01       25.01       25.01       25.01       25.01    
        25.01       25.00       25.00       25.00       25.00       25.00       25.00       25.00       25.00       25.00    
  39    25.01       25.01       25.01       25.01       25.01       25.01       25.01       25.01       25.01       25.01    
        25.01       25.01       25.01       25.01       25.01       25.01       25.01       25.01       25.01       25.01    
        25.01       25.01       25.01       25.00       25.00       25.00       25.00       25.00       25.00       25.00    
        25.00       25.00       25.00       25.00       25.00       25.00       25.00       25.00       25.00       25.00    
  40    25.00       25.00       25.00       25.00       25.00       25.00       25.00       25.00       25.00       25.00    
        25.00       25.00       25.00       25.00       25.00       25.00       25.00       25.00       25.00       25.00    
        25.00       25.00       25.00       25.00       25.00       25.00       25.00       25.00       25.00       25.00    
        25.00       25.00       25.00       25.00       25.00       25.00       25.00       25.00       25.00       25.00    
1
              HEAD IN LAYER  14 AT END OF TIME STEP   2 IN STRESS PERIOD    3
  ---------------------------------------------------------------------------

            1           2           3           4           5           6           7           8           9          10
           11          12          13          14          15          16          17          18          19          20
           21          22          23          24          25          26          27          28          29          30
           31          32          33          34          35          36          37          38          39          40
 ........................................................................................................................
   1    45.53       43.99       41.00       38.13       35.73       33.75       32.11       30.75       29.63       28.71    
        27.95       27.34       26.84       26.44       26.13       25.88       25.68       25.53       25.42       25.33    
        25.27       25.24       25.21       25.19       25.18       25.16       25.15       25.13       25.12       25.11    
        25.10       25.08       25.07       25.06       25.05       25.04       25.03       25.02       25.01       25.00    
   2    43.99       42.64       40.01       37.47       35.27       33.43       31.89       30.59       29.51       28.62    
        27.89       27.29       26.81       26.42       26.11       25.86       25.67       25.52       25.41       25.33    
        25.27       25.23       25.21       25.19       25.18       25.16       25.15       25.13       25.12       25.11    
        25.09       25.08       25.07       25.06       25.05       25.04       25.03       25.02       25.01       25.00    
   3    41.00       40.01       38.20       36.26       34.45       32.86       31.48       30.29       29.29       28.46    
        27.77       27.20       26.74       26.37       26.07       25.83       25.65       25.51       25.40       25.32    
        25.27       25.23       25.21       25.19       25.17       25.16       25.15       25.13       25.12       25.11    
        25.09       25.08       25.07       25.06       25.05       25.04       25.03       25.02       25.01       25.00    
   4    38.13       37.47       36.26       34.85       33.43       32.11       30.92       29.88       28.98       28.23    
        27.59       27.07       26.64       26.29       26.02       25.79       25.62       25.49       25.38       25.31    
        25.26       25.22       25.20       25.19       25.17       25.16       25.14       25.13       25.12       25.11    
        25.09       25.08       25.07       25.06       25.05       25.04       25.03       25.02       25.01       25.00    
   5    35.73       35.27       34.45       33.43       32.35       31.29       30.30       29.40       28.62       27.95    
        27.38       26.91       26.52       26.20       25.95       25.74       25.58       25.46       25.37       25.30    
        25.25       25.22       25.20       25.18       25.17       25.16       25.14       25.13       25.12       25.10    
        25.09       25.08       25.07       25.06       25.05       25.04       25.03       25.02       25.01       25.00    
   6    33.75       33.43       32.86       32.11       31.29       30.45       29.64       28.89       28.22       27.65    
        27.15       26.73       26.39       26.10       25.87       25.69       25.54       25.43       25.34       25.28    
        25.24       25.21       25.20       25.18       25.17       25.15       25.14       25.13       25.11       25.10    
        25.09       25.08       25.07       25.06       25.05       25.04       25.03       25.02       25.01       25.00    
   7    32.11       31.89       31.48       30.92       30.30       29.64       28.98       28.37       27.82       27.33    
        26.91       26.55       26.24       25.99       25.79       25.63       25.50       25.40       25.32       25.27    
        25.23       25.21       25.19       25.18       25.16       25.15       25.14       25.12       25.11       25.10    
        25.09       25.08       25.07       25.06       25.05       25.04       25.03       25.02       25.01       25.00    
   8    30.75       30.59       30.29       29.88       29.40       28.89       28.37       27.88       27.43       27.02    
        26.67       26.36       26.10       25.88       25.71       25.56       25.45       25.36       25.30       25.25    
        25.22       25.20       25.19       25.17       25.16       25.15       25.13       25.12       25.11       25.10    
        25.09       25.08       25.07       25.06       25.05       25.04       25.03       25.02       25.01       25.00    
   9    29.63       29.51       29.29       28.98       28.62       28.22       27.82       27.43       27.06       26.73    
        26.44       26.18       25.96       25.78       25.62       25.50       25.40       25.33       25.27       25.24    
        25.21       25.20       25.18       25.17       25.15       25.14       25.13       25.12       25.11       25.10    
        25.09       25.08       25.07       25.06       25.05       25.04       25.03       25.02       25.01       25.00    
  10    28.71       28.62       28.46       28.23       27.95       27.65       27.33       27.02       26.73       26.46    
        26.22       26.01       25.83       25.67       25.55       25.44       25.36       25.30       25.25       25.22    
        25.20       25.19       25.18       25.16       25.15       25.14       25.13       25.11       25.10       25.09    
        25.08       25.07       25.06       25.05       25.04       25.04       25.03       25.02       25.01       25.00    
  11    27.95       27.89       27.77       27.59       27.38       27.15       26.91       26.67       26.44       26.22    
        26.03       25.85       25.70       25.58       25.47       25.39       25.32       25.27       25.23       25.21    
        25.20       25.18       25.17       25.16       25.15       25.13       25.12       25.11       25.10       25.09    
        25.08       25.07       25.06       25.05       25.04       25.03       25.03       25.02       25.01       25.00    
  12    27.34       27.29       27.20       27.07       26.91       26.73       26.55       26.36       26.18       26.01    
        25.85       25.71       25.59       25.49       25.41       25.34       25.29       25.25       25.22       25.20    
        25.19       25.18       25.16       25.15       25.14       25.13       25.12       25.11       25.10       25.09    
        25.08       25.07       25.06       25.05       25.04       25.03       25.03       25.02       25.01       25.00    
  13    26.84       26.81       26.74       26.64       26.52       26.39       26.24       26.10       25.96       25.83    
        25.70       25.59       25.50       25.42       25.35       25.30       25.26       25.23       25.21       25.19    
        25.18       25.17       25.16       25.15       25.14       25.12       25.11       25.10       25.09       25.09    
        25.08       25.07       25.06       25.05       25.04       25.03       25.02       25.02       25.01       25.00    
  14    26.44       26.42       26.37       26.29       26.20       26.10       25.99       25.88       25.78       25.67    
        25.58       25.49       25.42       25.36       25.30       25.26       25.23       25.21       25.20       25.18    
        25.17       25.16       25.15       25.14       25.13       25.12       25.11       25.10       25.09       25.08    
        25.07       25.06       25.06       25.05       25.04       25.03       25.02       25.02       25.01       25.00    
  15    26.13       26.11       26.07       26.02       25.95       25.87       25.79       25.71       25.62       25.55    
        25.47       25.41       25.35       25.30       25.27       25.24       25.21       25.20       25.19       25.18    
        25.17       25.15       25.14       25.13       25.12       25.11       25.11       25.10       25.09       25.08    
        25.07       25.06       25.05       25.05       25.04       25.03       25.02       25.02       25.01       25.00    
  16    25.88       25.86       25.83       25.79       25.74       25.69       25.63       25.56       25.50       25.44    
        25.39       25.34       25.30       25.26       25.24       25.22       25.20       25.19       25.18       25.17    
        25.16       25.15       25.14       25.13       25.12       25.11       25.10       25.09       25.08       25.08    
        25.07       25.06       25.05       25.04       25.04       25.03       25.02       25.01       25.01       25.00    
  17    25.68       25.67       25.65       25.62       25.58       25.54       25.50       25.45       25.40       25.36    
        25.32       25.29       25.26       25.23       25.21       25.20       25.19       25.18       25.17       25.16    
        25.15       25.14       25.13       25.12       25.11       25.11       25.10       25.09       25.08       25.07    
        25.06       25.06       25.05       25.04       25.04       25.03       25.02       25.01       25.01       25.00    
  18    25.53       25.52       25.51       25.49       25.46       25.43       25.40       25.36       25.33       25.30    
        25.27       25.25       25.23       25.21       25.20       25.19       25.18       25.17       25.16       25.15    
        25.14       25.13       25.13       25.12       25.11       25.10       25.09       25.08       25.08       25.07    
        25.06       25.05       25.05       25.04       25.03       25.03       25.02       25.01       25.01       25.00    
  19    25.42       25.41       25.40       25.38       25.37       25.34       25.32       25.30       25.27       25.25    
        25.23       25.22       25.21       25.20       25.19       25.18       25.17       25.16       25.15       25.14    
        25.14       25.13       25.12       25.11       25.10       25.10       25.09       25.08       25.07       25.07    
        25.06       25.05       25.05       25.04       25.03       25.03       25.02       25.01       25.01       25.00    
  20    25.33       25.33       25.32       25.31       25.30       25.28       25.27       25.25       25.24       25.22    
        25.21       25.20       25.19       25.18       25.18       25.17       25.16       25.15       25.14       25.14    
        25.13       25.12       25.11       25.11       25.10       25.09       25.08       25.08       25.07       25.06    
        25.06       25.05       25.04       25.04       25.03       25.02       25.02       25.01       25.01       25.00    
  21    25.27       25.27       25.27       25.26       25.25       25.24       25.23       25.22       25.21       25.20    
        25.20       25.19       25.18       25.17       25.17       25.16       25.15       25.14       25.14       25.13    
        25.12       25.11       25.11       25.10       25.09       25.09       25.08       25.07       25.07       25.06    
        25.05       25.05       25.04       25.04       25.03       25.02       25.02       25.01       25.01       25.00    
  22    25.24       25.23       25.23       25.22       25.22       25.21       25.21       25.20       25.20       25.19    
        25.18       25.18       25.17       25.16       25.15       25.15       25.14       25.13       25.13       25.12    
        25.11       25.11       25.10       25.09       25.09       25.08       25.07       25.07       25.06       25.06    
        25.05       25.04       25.04       25.03       25.03       25.02       25.02       25.01       25.01       25.00    
  23    25.21       25.21       25.21       25.20       25.20       25.20       25.19       25.19       25.18       25.18    
        25.17       25.16       25.16       25.15       25.14       25.14       25.13       25.13       25.12       25.11    
        25.11       25.10       25.09       25.09       25.08       25.08       25.07       25.06       25.06       25.05    
        25.05       25.04       25.04       25.03       25.03       25.02       25.02       25.01       25.01       25.00    
  24    25.19       25.19       25.19       25.19       25.18       25.18       25.18       25.17       25.17       25.16    
        25.16       25.15       25.15       25.14       25.13       25.13       25.12       25.12       25.11       25.11    
        25.10       25.09       25.09       25.08       25.08       25.07       25.07       25.06       25.05       25.05    
        25.04       25.04       25.03       25.03       25.02       25.02       25.01       25.01       25.00       25.00    
  25    25.18       25.18       25.17       25.17       25.17       25.17       25.16       25.16       25.15       25.15    
        25.15       25.14       25.14       25.13       25.12       25.12       25.11       25.11       25.10       25.10    
        25.09       25.09       25.08       25.08       25.07       25.07       25.06       25.06       25.05       25.05    
        25.04       25.04       25.03       25.03       25.02       25.02       25.01       25.01       25.00       25.00    
  26    25.16       25.16       25.16       25.16       25.16       25.15       25.15       25.15       25.14       25.14    
        25.13       25.13       25.12       25.12       25.11       25.11       25.11       25.10       25.10       25.09    
        25.09       25.08       25.08       25.07       25.07       25.06       25.06       25.05       25.05       25.04    
        25.04       25.03       25.03       25.03       25.02       25.02       25.01       25.01       25.00       25.00    
  27    25.15       25.15       25.15       25.14       25.14       25.14       25.14       25.13       25.13       25.13    
        25.12       25.12       25.11       25.11       25.11       25.10       25.10       25.09       25.09       25.08    
        25.08       25.07       25.07       25.07       25.06       25.06       25.05       25.05       25.04       25.04    
        25.04       25.03       25.03       25.02       25.02       25.02       25.01       25.01       25.00       25.00    
  28    25.13       25.13       25.13       25.13       25.13       25.13       25.12       25.12       25.12       25.11    
        25.11       25.11       25.10       25.10       25.10       25.09       25.09       25.08       25.08       25.08    
        25.07       25.07       25.06       25.06       25.06       25.05       25.05       25.04       25.04       25.04    
        25.03       25.03       25.03       25.02       25.02       25.01       25.01       25.01       25.00       25.00    
  29    25.12       25.12       25.12       25.12       25.12       25.11       25.11       25.11       25.11       25.10    
        25.10       25.10       25.09       25.09       25.09       25.08       25.08       25.08       25.07       25.07    
        25.07       25.06       25.06       25.05       25.05       25.05       25.04       25.04       25.04       25.03    
        25.03       25.03       25.02       25.02       25.02       25.01       25.01       25.01       25.00       25.00    
  30    25.11       25.11       25.11       25.11       25.10       25.10       25.10       25.10       25.10       25.09    
        25.09       25.09       25.09       25.08       25.08       25.08       25.07       25.07       25.07       25.06    
        25.06       25.06       25.05       25.05       25.05       25.04       25.04       25.04       25.03       25.03    
        25.03       25.02       25.02       25.02       25.02       25.01       25.01       25.01       25.00       25.00    
  31    25.10       25.09       25.09       25.09       25.09       25.09       25.09       25.09       25.09       25.08    
        25.08       25.08       25.08       25.07       25.07       25.07       25.06       25.06       25.06       25.06    
        25.05       25.05       25.05       25.04       25.04       25.04       25.04       25.03       25.03       25.03    
        25.02       25.02       25.02       25.02       25.01       25.01       25.01       25.01       25.00       25.00    
  32    25.08       25.08       25.08       25.08       25.08       25.08       25.08       25.08       25.08       25.07    
        25.07       25.07       25.07       25.06       25.06       25.06       25.06       25.05       25.05       25.05    
        25.05       25.04       25.04       25.04       25.04       25.03       25.03       25.03       25.03       25.02    
        25.02       25.02       25.02       25.01       25.01       25.01       25.01       25.00       25.00       25.00    
  33    25.07       25.07       25.07       25.07       25.07       25.07       25.07       25.07       25.07       25.06    
        25.06       25.06       25.06       25.06       25.05       25.05       25.05       25.05       25.05       25.04    
        25.04       25.04       25.04       25.03       25.03       25.03       25.03       25.03       25.02       25.02    
        25.02       25.02       25.01       25.01       25.01       25.01       25.01       25.00       25.00       25.00    
  34    25.06       25.06       25.06       25.06       25.06       25.06       25.06       25.06       25.06       25.05    
        25.05       25.05       25.05       25.05       25.05       25.04       25.04       25.04       25.04       25.04    
        25.04       25.03       25.03       25.03       25.03       25.03       25.02       25.02       25.02       25.02    
        25.02       25.01       25.01       25.01       25.01       25.01       25.01       25.00       25.00       25.00    
  35    25.05       25.05       25.05       25.05       25.05       25.05       25.05       25.05       25.05       25.04    
        25.04       25.04       25.04       25.04       25.04       25.04       25.04       25.03       25.03       25.03    
        25.03       25.03       25.03       25.02       25.02       25.02       25.02       25.02       25.02       25.02    
        25.01       25.01       25.01       25.01       25.01       25.01       25.00       25.00       25.00       25.00    
  36    25.04       25.04       25.04       25.04       25.04       25.04       25.04       25.04       25.04       25.04    
        25.03       25.03       25.03       25.03       25.03       25.03       25.03       25.03       25.03       25.02    
        25.02       25.02       25.02       25.02       25.02       25.02       25.02       25.01       25.01       25.01    
        25.01       25.01       25.01       25.01       25.01       25.00       25.00       25.00       25.00       25.00    
  37    25.03       25.03       25.03       25.03       25.03       25.03       25.03       25.03       25.03       25.03    
        25.03       25.03       25.02       25.02       25.02       25.02       25.02       25.02       25.02       25.02    
        25.02       25.02       25.02       25.01       25.01       25.01       25.01       25.01       25.01       25.01    
        25.01       25.01       25.01       25.01       25.00       25.00       25.00       25.00       25.00       25.00    
  38    25.02       25.02       25.02       25.02       25.02       25.02       25.02       25.02       25.02       25.02    
        25.02       25.02       25.02       25.02       25.02       25.01       25.01       25.01       25.01       25.01    
        25.01       25.01       25.01       25.01       25.01       25.01       25.01       25.01       25.01       25.01    
        25.01       25.00       25.00       25.00       25.00       25.00       25.00       25.00       25.00       25.00    
  39    25.01       25.01       25.01       25.01       25.01       25.01       25.01       25.01       25.01       25.01    
        25.01       25.01       25.01       25.01       25.01       25.01       25.01       25.01       25.01       25.01    
        25.01       25.01       25.01       25.00       25.00       25.00       25.00       25.00       25.00       25.00    
        25.00       25.00       25.00       25.00       25.00       25.00       25.00       25.00       25.00       25.00    
  40    25.00       25.00       25.00       25.00       25.00       25.00       25.00       25.00       25.00       25.00    
        25.00       25.00       25.00       25.00       25.00       25.00       25.00       25.00       25.00       25.00    
        25.00       25.00       25.00       25.00       25.00       25.00       25.00       25.00       25.00       25.00    
        25.00       25.00       25.00       25.00       25.00       25.00       25.00       25.00       25.00       25.00    



          TIME SUMMARY AT END OF TIME STEP   2 IN STRESS PERIOD    3
                    SECONDS     MINUTES      HOURS       DAYS        YEARS
                    -----------------------------------------------------------
   TIME STEP LENGTH 9.76828E+06 1.62805E+05  2713.4      113.06     0.30954    
 STRESS PERIOD TIME 1.95366E+07 3.25609E+05  5426.8      226.12     0.61908    
         TOTAL TIME 8.07078E+07 1.34513E+06  22419.      934.12      2.5575    
1
 
 SOLVING FOR HEAD 

 CELL CONVERSIONS FOR ITER.=  2  LAYER=  4  STEP=  3  PERIOD=   3   (ROW,COL)
    WET(  1,  1)   

 CELL CONVERSIONS FOR ITER.=  2  LAYER=  7  STEP=  3  PERIOD=   3   (ROW,COL)
    WET(  2,  5)   WET(  4,  4)   WET(  5,  2)   

 CELL CONVERSIONS FOR ITER.=  2  LAYER=  8  STEP=  3  PERIOD=   3   (ROW,COL)
    WET(  3,  8)   WET(  5,  7)   WET(  6,  6)   WET(  7,  5)   WET(  8,  3)   
     6 CALLS TO PCG ROUTINE FOR TIME STEP   3 IN STRESS PERIOD    3
    50 TOTAL ITERATIONS

 MAXIMUM HEAD CHANGE FOR EACH ITERATION (1 INDICATES THE FIRST INNER ITERATION):

    HEAD CHANGE    HEAD CHANGE    HEAD CHANGE    HEAD CHANGE    HEAD CHANGE 
   LAYER,ROW,COL  LAYER,ROW,COL  LAYER,ROW,COL  LAYER,ROW,COL  LAYER,ROW,COL
 ---------------------------------------------------------------------------
  1  0.8962      0 -0.1674      0  0.7842E-01  0  0.1998E-01  0 -0.2231E-01
   (  5,  1,  1)  ( 14,  1,  1)  ( 14,  1,  1)  ( 14, 29,  1)  (  9,  1,  1)
  0 -0.7577E-02  0 -0.5627E-02  0 -0.2505E-02  0 -0.2832E-02  0 -0.7896E-03
   ( 14, 35,  2)  ( 14,  2,  5)  ( 14,  2,  2)  ( 14,  1,  1)  ( 14,  1,  1)
  0  0.5144E-03  0  0.4832E-03  0  0.2144E-03  0  0.1400E-03  0 -0.5767E-04
   (  7,  1,  1)  (  7,  1,  1)  (  6,  1,  1)  ( 13,  2,  4)  ( 14, 31,  5)
  1 -0.9784      0  0.4474      0  0.1093      0  0.4471E-01  0  0.1151E-01
   (  5,  1,  1)  ( 14,  1,  1)  ( 14,  1,  1)  (  8,  2,  2)  (  7,  2,  2)
  0  0.1091E-01  0  0.2128E-02  0  0.3263E-02  0  0.9119E-03  0  0.6168E-03
   ( 13,  1,  4)  ( 10,  5,  2)  ( 13,  1,  6)  ( 14,  1,  7)  ( 14,  2,  8)
  0  0.3047E-03  0  0.1437E-03  0  0.1438E-03  0 -0.6982E-04  1  0.2653E-01
   ( 11,  5,  7)  (  4,  1,  1)  (  4,  1,  1)  ( 14, 33,  4)  (  7,  2,  5)
  0 -0.1382E-01  0 -0.4719E-02  0 -0.1822E-02  0 -0.1372E-02  0 -0.8297E-03
   ( 13,  5,  2)  ( 14,  1,  1)  ( 14,  1,  1)  ( 10,  2,  2)  (  9,  2,  2)
  0  0.7266E-03  0  0.3750E-03  0 -0.1520E-03  0  0.1094E-03  0  0.3571E-04
   ( 14,  2,  2)  ( 14,  2,  2)  (  9,  4,  4)  ( 14,  3,  1)  ( 14,  1,  1)
  1  0.2741E-02  0  0.1266E-02  0  0.2987E-03  0 -0.3815E-03  0 -0.1419E-03
   (  6,  2,  2)  ( 14,  1,  1)  (  5,  2,  2)  ( 14,  3,  1)  ( 14,  1,  1)
  0 -0.1723E-03  0 -0.8731E-04  1  0.1308E-03  0  0.7227E-04  1 -0.3876E-04
   ( 14,  1,  1)  (  8,  2,  2)  (  5,  2,  2)  (  5,  2,  2)  ( 11,  2,  2)

 MAXIMUM RESIDUAL FOR EACH ITERATION (1 INDICATES THE FIRST INNER ITERATION):

    RESIDUAL       RESIDUAL       RESIDUAL       RESIDUAL       RESIDUAL    
   LAYER,ROW,COL  LAYER,ROW,COL  LAYER,ROW,COL  LAYER,ROW,COL  LAYER,ROW,COL
 ---------------------------------------------------------------------------
  1   11.20      0  -3.142      0   2.015      0   1.488      0  0.7152    
   ( 10,  2,  5)  (  9,  6,  7)  ( 14,  5,  6)  ( 14,  5,  6)  ( 14,  2,  5)
  0  0.4545      0 -0.2315      0 -0.1930      0  0.8357E-01  0 -0.7841E-01
   ( 14,  2,  5)  (  9,  2,  5)  (  9,  2,  5)  ( 14,  1,  1)  (  7,  1,  1)
  0 -0.4200E-01  0  0.2231E-01  0 -0.1173E-01  0  0.7438E-02  0  0.4709E-02
   (  7,  1,  1)  ( 14,  3,  8)  (  9,  2,  5)  ( 12,  6,  6)  ( 14,  2,  2)
  1   89.62      0   10.81      0  -4.838      0   2.617      0   1.966    
   (  5,  1,  1)  (  5,  1,  1)  (  8,  2,  2)  (  5,  1,  1)  (  5,  1,  1)
  0   1.079      0  0.8352      0  0.5179      0  0.3939      0  0.2626    
   (  5,  1,  1)  (  5,  1,  1)  (  5,  1,  1)  (  5,  1,  1)  (  5,  1,  1)
  0  0.1766      0  0.1256      0  0.7561E-01  0  0.5416E-01  1  -8.320    
   (  5,  1,  1)  (  5,  1,  1)  (  5,  1,  1)  (  5,  1,  1)  (  7,  2,  5)
  0  -2.058      0  -1.089      0 -0.7442      0  0.4894      0  0.2859    
   (  7,  2,  5)  (  7,  2,  5)  (  7,  2,  5)  (  8,  2,  5)  (  8,  2,  5)
  0  0.1382      0  0.7724E-01  0  0.5139E-01  0  0.3377E-01  0  0.2598E-01
   (  8,  2,  5)  (  8,  2,  5)  (  8,  2,  5)  (  8,  2,  5)  (  8,  2,  5)
  1 -0.6212      0 -0.2684      0 -0.1603      0 -0.8055E-01  0 -0.6135E-01
   (  6,  2,  2)  (  6,  2,  2)  (  6,  2,  2)  (  7,  2,  3)  (  7,  2,  3)
  0 -0.3452E-01  0 -0.1763E-01  1  0.4510E-01  0  0.3424E-01  1  0.3009E-01
   (  7,  2,  3)  (  7,  2,  3)  (  7,  2,  4)  (  7,  2,  4)  (  7,  2,  4)



 NO OUTPUT CONTROL FOR STRESS PERIOD    3   TIME STEP   3
 
 SOLVING FOR HEAD 

 CELL CONVERSIONS FOR ITER.=  2  LAYER=  7  STEP=  4  PERIOD=   3   (ROW,COL)
    WET(  3,  5)   WET(  5,  3)   

 CELL CONVERSIONS FOR ITER.=  2  LAYER=  8  STEP=  4  PERIOD=   3   (ROW,COL)
    WET(  1,  9)   WET(  2,  9)   WET(  4,  8)   WET(  6,  7)   WET(  7,  6)   
    WET(  8,  4)   WET(  9,  1)   WET(  9,  2)   
     5 CALLS TO PCG ROUTINE FOR TIME STEP   4 IN STRESS PERIOD    3
    45 TOTAL ITERATIONS

 MAXIMUM HEAD CHANGE FOR EACH ITERATION (1 INDICATES THE FIRST INNER ITERATION):

    HEAD CHANGE    HEAD CHANGE    HEAD CHANGE    HEAD CHANGE    HEAD CHANGE 
   LAYER,ROW,COL  LAYER,ROW,COL  LAYER,ROW,COL  LAYER,ROW,COL  LAYER,ROW,COL
 ---------------------------------------------------------------------------
  1  0.7608      0 -0.1468      0 -0.3470E-01  0  0.1703E-01  0  0.1346E-01
   (  8,  3,  5)  ( 13,  9,  2)  ( 14,  6,  7)  ( 14, 31,  2)  ( 14,  1,  1)
  0 -0.7542E-02  0 -0.5013E-02  0 -0.4990E-02  0 -0.1520E-02  0 -0.1100E-02
   ( 14, 36,  3)  ( 14,  1,  1)  ( 14,  1,  1)  ( 14,  1,  2)  ( 14,  1,  3)
  0 -0.3796E-03  0  0.1759E-03  0 -0.1310E-03  0  0.1121E-03  0  0.1139E-03
   ( 14,  3,  1)  ( 14, 33,  3)  ( 14, 11, 11)  ( 13,  2,  2)  ( 12,  2,  2)
  0  0.6484E-04  1  0.4980      0  0.2401      0  0.4638E-01  0  0.1369E-01
   (  8,  1,  1)  (  8,  4,  8)  ( 14,  2,  2)  ( 14,  1,  1)  (  7,  2,  2)
  0  0.9341E-02  0  0.5263E-02  0  0.1486E-02  0  0.1526E-02  0  0.5025E-03
   (  7,  2,  2)  ( 11,  4,  1)  ( 14, 12, 29)  ( 13,  4,  4)  ( 13,  4,  4)
  0  0.2779E-03  0  0.3406E-03  0 -0.1006E-03  0  0.1173E-03  0 -0.3587E-04
   ( 14,  2,  2)  ( 14,  2,  2)  ( 14, 31, 19)  (  9,  1,  1)  ( 14, 27, 15)
  1  0.1633E-01  0 -0.9406E-02  0 -0.3103E-02  0 -0.8533E-03  0 -0.9698E-03
   (  7,  3,  5)  ( 13,  3,  5)  ( 13,  4,  4)  ( 14,  4,  4)  ( 14,  2,  2)
  0  0.3656E-03  0  0.2640E-03  0  0.1938E-03  0  0.7586E-04  1 -0.9815E-03
   ( 14, 32, 28)  ( 14,  2,  2)  ( 14,  2,  2)  ( 14,  1,  1)  (  7,  3,  4)
  0 -0.2198E-03  0  0.4174E-03  0  0.1204E-03  0 -0.7272E-04  1 -0.3300E-04
   ( 14, 22, 29)  ( 14,  4,  4)  ( 14,  2, 32)  ( 14,  1,  1)  ( 14, 13, 32)

 MAXIMUM RESIDUAL FOR EACH ITERATION (1 INDICATES THE FIRST INNER ITERATION):

    RESIDUAL       RESIDUAL       RESIDUAL       RESIDUAL       RESIDUAL    
   LAYER,ROW,COL  LAYER,ROW,COL  LAYER,ROW,COL  LAYER,ROW,COL  LAYER,ROW,COL
 ---------------------------------------------------------------------------
  1   13.20      0  -2.744      0   1.372      0   1.140      0  0.6161    
   ( 11,  2,  9)  (  9,  7,  7)  ( 14,  6,  6)  ( 14,  4,  7)  ( 14,  5,  6)
  0  0.3948      0  0.2594      0  0.1276      0  0.9070E-01  0 -0.5062E-01
   ( 14,  4,  4)  ( 14,  4,  4)  ( 14,  3,  5)  ( 14,  3,  5)  (  7,  1,  1)
  0  0.3992E-01  0 -0.2699E-01  0 -0.1429E-01  0 -0.8723E-02  0  0.4577E-02
   ( 14,  1,  1)  (  9,  5,  3)  (  7,  1,  1)  (  7,  1,  1)  ( 14,  2,  2)
  0  0.4316E-02  1  -35.81      0   6.009      0  -3.115      0  -1.930    
   ( 14,  2,  2)  (  8,  4,  8)  ( 13,  2,  2)  (  7,  2,  2)  (  7,  2,  2)
  0  -1.039      0 -0.4360      0 -0.3065      0 -0.1760      0 -0.1466    
   (  7,  2,  2)  ( 10,  4,  8)  ( 10,  4,  8)  (  9,  6,  6)  (  9,  6,  6)
  0 -0.1110      0 -0.6351E-01  0 -0.4498E-01  0 -0.2404E-01  0 -0.1624E-01
   (  9,  6,  6)  (  9,  6,  6)  (  9,  6,  6)  (  9,  6,  6)  (  9,  6,  6)
  1  -4.811      0  -1.092      0 -0.5733      0 -0.4059      0  0.2386    
   (  7,  3,  5)  (  7,  3,  5)  (  7,  3,  5)  (  7,  3,  5)  (  8,  3,  5)
  0  0.1588      0  0.8666E-01  0  0.3902E-01  0  0.2660E-01  1  0.3264    
   (  8,  3,  5)  (  8,  3,  5)  (  8,  3,  5)  (  8,  3,  5)  (  7,  3,  4)
  0  0.2368      0 -0.6871E-01  0 -0.4524E-01  0  0.3133E-01  1 -0.4426E-01
   (  7,  3,  4)  (  7,  5,  3)  (  7,  5,  3)  (  8,  3,  3)  (  7,  5,  3)



 NO OUTPUT CONTROL FOR STRESS PERIOD    3   TIME STEP   4
 
 SOLVING FOR HEAD 

 CELL CONVERSIONS FOR ITER.=  2  LAYER=  8  STEP=  5  PERIOD=   3   (ROW,COL)
    WET(  3,  9)   WET(  5,  8)   WET(  8,  5)   WET(  9,  3)   
     5 CALLS TO PCG ROUTINE FOR TIME STEP   5 IN STRESS PERIOD    3
    41 TOTAL ITERATIONS

 MAXIMUM HEAD CHANGE FOR EACH ITERATION (1 INDICATES THE FIRST INNER ITERATION):

    HEAD CHANGE    HEAD CHANGE    HEAD CHANGE    HEAD CHANGE    HEAD CHANGE 
   LAYER,ROW,COL  LAYER,ROW,COL  LAYER,ROW,COL  LAYER,ROW,COL  LAYER,ROW,COL
 ---------------------------------------------------------------------------
  1  0.6047      0 -0.6494E-01  0 -0.2002E-01  0  0.1299E-01  0  0.9178E-02
   (  8,  8,  4)  ( 12,  3,  9)  ( 14,  1, 30)  ( 14,  1,  1)  ( 14,  2, 36)
  0  0.3857E-02  0 -0.3547E-02  0 -0.3403E-02  0 -0.2048E-02  0 -0.5368E-03
   ( 14,  1, 25)  ( 14,  1,  1)  ( 13,  2,  2)  ( 13,  2,  2)  ( 14,  1,  3)
  0 -0.3167E-03  0  0.1501E-03  0  0.1042E-03  0 -0.7194E-04  1  0.4232    
   ( 14,  3,  1)  ( 12,  8,  8)  ( 10, 29, 11)  ( 14, 30, 13)  (  8,  8,  5)
  0  0.2732      0  0.5386E-01  0  0.1193E-01  0  0.8187E-02  0  0.5261E-02
   ( 14,  2,  2)  ( 14,  3,  1)  (  7,  2,  2)  (  7,  2,  2)  (  5,  1,  2)
  0  0.1228E-02  0  0.1321E-02  0 -0.4557E-03  0 -0.4008E-03  0  0.1501E-03
   (  6,  2,  2)  (  7,  3,  3)  ( 14,  4, 30)  ( 13,  3,  3)  ( 14,  3, 35)
  0  0.1256E-03  0  0.6358E-04  1  0.1433E-01  0  0.8492E-02  0  0.1166E-02
   ( 13,  8,  6)  ( 14, 12, 32)  (  5,  2,  1)  (  5,  1,  2)  ( 14, 17, 32)
  0 -0.2167E-02  0 -0.6414E-03  0 -0.5962E-03  0  0.1917E-03  0 -0.1380E-03
   ( 14,  1,  1)  ( 14,  1,  3)  (  8,  1,  2)  ( 14,  3, 29)  ( 14,  1,  1)
  0  0.7065E-04  1 -0.7207E-03  0 -0.2150E-03  0 -0.1903E-03  0  0.8472E-04
   (  5,  2,  2)  (  5,  1,  1)  (  5,  1,  1)  (  5,  1,  1)  ( 14,  1,  1)
  1  0.4902E-04
   ( 13,  2,  3)

 MAXIMUM RESIDUAL FOR EACH ITERATION (1 INDICATES THE FIRST INNER ITERATION):

    RESIDUAL       RESIDUAL       RESIDUAL       RESIDUAL       RESIDUAL    
   LAYER,ROW,COL  LAYER,ROW,COL  LAYER,ROW,COL  LAYER,ROW,COL  LAYER,ROW,COL
 ---------------------------------------------------------------------------
  1   5.229      0  -1.410      0   1.027      0 -0.9474      0 -0.6220    
   ( 10,  4,  8)  (  9,  7,  7)  ( 14,  5,  7)  ( 13,  4,  8)  ( 13,  4,  8)
  0  0.2318      0  0.2064      0  0.1150      0 -0.5834E-01  0 -0.4640E-01
   ( 14,  3,  9)  (  9,  2,  2)  ( 13,  4,  8)  ( 13,  2,  2)  ( 13,  2,  2)
  0 -0.1999E-01  0 -0.1394E-01  0 -0.8461E-02  0 -0.5183E-02  1  -55.42    
   ( 10,  4,  8)  ( 10,  4,  8)  ( 13,  5,  7)  ( 13,  5,  7)  (  8,  5,  8)
  0  -4.801      0  -2.969      0  -1.889      0  -1.126      0 -0.6858    
   (  8,  5,  8)  (  7,  2,  2)  (  7,  2,  2)  (  7,  2,  2)  (  7,  2,  2)
  0 -0.4632      0 -0.2393      0 -0.1738      0 -0.1079      0 -0.8187E-01
   (  7,  2,  2)  ( 10,  5,  8)  ( 10,  5,  8)  (  9,  5,  7)  (  9,  5,  7)
  0 -0.5028E-01  0 -0.2869E-01  1  -3.572      0  -1.026      0 -0.6762    
   (  9,  5,  7)  (  9,  5,  7)  (  8,  5,  8)  (  8,  5,  8)  (  8,  5,  8)
  0 -0.3301      0 -0.2200      0  0.1322      0  0.9960E-01  0  0.5391E-01
   (  8,  5,  8)  (  8,  5,  8)  (  9,  5,  8)  (  9,  5,  8)  (  9,  5,  8)
  0  0.3463E-01  1  0.2188      0  0.1823      0  0.8428E-01  0  0.3973E-01
   (  9,  5,  8)  (  6,  2,  2)  (  6,  2,  2)  (  6,  2,  2)  (  6,  2,  2)
  1  0.5354E-01
   (  6,  2,  2)



 NO OUTPUT CONTROL FOR STRESS PERIOD    3   TIME STEP   5
 
 SOLVING FOR HEAD 

 CELL CONVERSIONS FOR ITER.=  2  LAYER=  6  STEP=  6  PERIOD=   3   (ROW,COL)
    WET(  3,  3)   

 CELL CONVERSIONS FOR ITER.=  2  LAYER=  7  STEP=  6  PERIOD=   3   (ROW,COL)
    WET(  1,  6)   WET(  2,  6)   WET(  4,  5)   WET(  5,  4)   WET(  6,  1)   
    WET(  6,  2)   

 CELL CONVERSIONS FOR ITER.=  2  LAYER=  8  STEP=  6  PERIOD=   3   (ROW,COL)
    WET(  1, 10)   WET(  4,  9)   WET(  6,  8)   WET(  7,  7)   WET(  8,  6)   
    WET(  9,  4)   WET( 10,  1)   

 CELL CONVERSIONS FOR ITER.=  2  LAYER=  9  STEP=  6  PERIOD=   3   (ROW,COL)
    WET(  1, 23)   WET(  1, 24)   WET(  1, 25)   WET(  2, 23)   WET(  2, 24)   
    WET(  2, 25)   WET(  3, 23)   WET(  3, 24)   WET(  3, 25)   WET(  4, 23)   
    WET(  4, 24)   WET(  5, 23)   WET(  5, 24)   WET(  6, 23)   WET(  6, 24)   
    WET(  7, 22)   WET(  7, 23)   WET(  7, 24)   WET(  8, 22)   WET(  8, 23)   
    WET(  9, 22)   WET(  9, 23)   WET( 10, 21)   WET( 10, 22)   WET( 10, 23)   
    WET( 11, 21)   WET( 11, 22)   WET( 12, 20)   WET( 12, 21)   WET( 12, 22)   
    WET( 13, 20)   WET( 13, 21)   WET( 14, 19)   WET( 14, 20)   WET( 14, 21)   
    WET( 15, 18)   WET( 15, 19)   WET( 15, 20)   WET( 16, 17)   WET( 16, 18)   
    WET( 16, 19)   WET( 17, 16)   WET( 17, 17)   WET( 17, 18)   WET( 18, 15)   
    WET( 18, 16)   WET( 18, 17)   WET( 19, 14)   WET( 19, 15)   WET( 19, 16)   
    WET( 20, 12)   WET( 20, 13)   WET( 20, 14)   WET( 20, 15)   WET( 21, 10)   
    WET( 21, 11)   WET( 21, 12)   WET( 21, 13)   WET( 21, 14)   WET( 22,  7)   
    WET( 22,  8)   WET( 22,  9)   WET( 22, 10)   WET( 22, 11)   WET( 22, 12)   
    WET( 23,  1)   WET( 23,  2)   WET( 23,  3)   WET( 23,  4)   WET( 23,  5)   
    WET( 23,  6)   WET( 23,  7)   WET( 23,  8)   WET( 23,  9)   WET( 23, 10)   
    WET( 24,  1)   WET( 24,  2)   WET( 24,  3)   WET( 24,  4)   WET( 24,  5)   
    WET( 24,  6)   WET( 24,  7)   WET( 25,  1)   WET( 25,  2)   WET( 25,  3)   
     6 CALLS TO PCG ROUTINE FOR TIME STEP   6 IN STRESS PERIOD    3
    56 TOTAL ITERATIONS

 MAXIMUM HEAD CHANGE FOR EACH ITERATION (1 INDICATES THE FIRST INNER ITERATION):

    HEAD CHANGE    HEAD CHANGE    HEAD CHANGE    HEAD CHANGE    HEAD CHANGE 
   LAYER,ROW,COL  LAYER,ROW,COL  LAYER,ROW,COL  LAYER,ROW,COL  LAYER,ROW,COL
 ---------------------------------------------------------------------------
  1  0.6735      0 -0.9531E-01  0  0.2650E-01  0  0.1445E-01  0 -0.9397E-02
   (  8,  2,  6)  ( 12,  2,  6)  ( 14,  1,  1)  ( 14, 31,  2)  (  9,  2,  6)
  0 -0.6419E-02  0 -0.5222E-02  0 -0.4282E-02  0 -0.1603E-02  0 -0.9017E-03
   ( 14, 36,  3)  ( 14,  1,  1)  ( 14,  1,  1)  ( 14,  2,  2)  ( 14,  3,  3)
  0 -0.3778E-03  0 -0.2042E-03  0  0.1744E-03  0  0.1030E-03  0  0.1049E-03
   ( 14,  3,  3)  ( 10,  4,  4)  ( 13,  2,  2)  (  8,  3,  3)  ( 13,  4,  4)
  0  0.4472E-04  1  0.4464      0  0.1893      0  0.8023E-01  0 -0.4565E-01
   ( 13,  4,  4)  (  8,  4,  9)  ( 13,  2,  2)  ( 14,  1, 30)  ( 13,  2,  2)
  0  0.3103E-01  0  0.2091E-01  0  0.9969E-02  0  0.5766E-02  0  0.2738E-02
   ( 14,  3, 27)  ( 14, 30,  2)  ( 14, 33, 14)  ( 14, 20, 32)  ( 14, 31, 24)
  0  0.2140E-02  0 -0.9943E-03  0 -0.6838E-03  0 -0.3661E-03  0 -0.2065E-03
   ( 14, 29, 29)  ( 14, 33, 33)  ( 13, 24, 29)  ( 14, 27, 27)  ( 10,  9,  5)
  0  0.1638E-03  0  0.1420E-03  0  0.6464E-04  1 -0.2528E-01  0 -0.1813E-01
   ( 14, 34,  2)  ( 14, 25, 25)  ( 14, 14, 29)  (  7,  5,  1)  ( 13,  3,  3)
  0  0.7034E-02  0  0.1259E-02  0  0.2057E-02  0  0.1521E-02  0  0.5740E-03
   ( 14,  2,  2)  ( 14, 31, 16)  ( 14,  4,  1)  ( 14,  2,  2)  ( 14,  2,  2)
  0 -0.2782E-03  0 -0.2440E-03  0 -0.1865E-03  0 -0.8800E-04  1  0.1948E-02
   ( 14,  1,  1)  ( 13,  2,  2)  (  9,  1,  2)  (  9,  2,  1)  (  6,  2,  2)
  0 -0.1447E-02  0  0.3638E-03  0 -0.3836E-03  0 -0.1200E-03  0 -0.2412E-03
   ( 14,  2,  2)  ( 14, 25, 31)  ( 14,  1,  3)  (  8,  2,  2)  (  8,  2,  2)
  0 -0.7344E-04  1  0.2218E-03  0  0.1100E-03  0 -0.1108E-03  0 -0.3778E-04
   (  9,  1,  4)  (  6,  2,  2)  (  6,  2,  2)  ( 13,  2,  2)  ( 14,  2,  2)
  1  0.2998E-04
   ( 13,  2,  2)

 MAXIMUM RESIDUAL FOR EACH ITERATION (1 INDICATES THE FIRST INNER ITERATION):

    RESIDUAL       RESIDUAL       RESIDUAL       RESIDUAL       RESIDUAL    
   LAYER,ROW,COL  LAYER,ROW,COL  LAYER,ROW,COL  LAYER,ROW,COL  LAYER,ROW,COL
 ---------------------------------------------------------------------------
  1   9.623      0  -2.293      0   1.173      0  0.9905      0  0.4788    
   ( 10,  2,  6)  ( 13,  3,  3)  ( 14,  6,  7)  ( 14,  6,  7)  ( 14,  4,  8)
  0  0.3525      0  0.2182      0  0.1295      0 -0.1139      0  0.6321E-01
   ( 14,  4,  5)  ( 14,  4,  5)  ( 14,  3,  6)  (  9,  4,  5)  ( 13,  3,  3)
  0 -0.4056E-01  0 -0.3121E-01  0 -0.1679E-01  0 -0.7699E-02  0  0.3362E-02
   (  8,  3,  3)  (  8,  3,  3)  ( 13,  4,  4)  ( 13,  4,  4)  (  9,  5,  8)
  0  0.3070E-02  1  -30.29      0  -9.890      0   5.440      0   3.170    
   ( 13,  4,  4)  (  7,  1,  6)  (  7,  1,  6)  (  8,  1,  6)  (  8,  1,  6)
  0   1.417      0 -0.7302      0 -0.4931      0 -0.3652      0 -0.2562    
   (  8,  1,  6)  (  7,  1,  6)  ( 10,  4,  9)  (  9,  7,  6)  (  9,  7,  6)
  0 -0.1767      0 -0.1352      0 -0.9734E-01  0 -0.7511E-01  0 -0.5135E-01
   (  9,  7,  6)  (  9,  7,  6)  (  9,  7,  6)  (  9,  7,  6)  (  9,  7,  6)
  0 -0.3448E-01  0 -0.2242E-01  0 -0.1420E-01  1   6.853      0   1.772    
   (  9,  7,  6)  (  9,  7,  6)  (  9,  7,  6)  (  7,  1,  5)  (  7,  1,  5)
  0  0.8597      0 -0.6164      0  0.4265      0 -0.1811      0 -0.9318E-01
   (  7,  1,  5)  (  6,  3,  3)  (  8,  3,  3)  (  6,  3,  3)  (  6,  3,  3)
  0 -0.5232E-01  0  0.3412E-01  0  0.2447E-01  0  0.1724E-01  1 -0.7184    
   (  6,  3,  3)  (  8,  6,  1)  (  8,  6,  1)  (  8,  1,  6)  (  6,  3,  3)
  0 -0.2831      0 -0.1761      0  0.1045      0  0.7978E-01  0 -0.3540E-01
   (  6,  3,  3)  (  6,  3,  3)  (  7,  2,  2)  (  7,  2,  2)  (  6,  3,  3)
  0  0.2024E-01  1 -0.1032      0 -0.7824E-01  0 -0.3823E-01  0 -0.2076E-01
   (  7,  3,  3)  (  6,  3,  3)  (  6,  3,  3)  (  6,  3,  3)  (  6,  3,  3)
  1 -0.2682E-01
   (  6,  3,  3)



 NO OUTPUT CONTROL FOR STRESS PERIOD    3   TIME STEP   6
 
 SOLVING FOR HEAD 

 CELL CONVERSIONS FOR ITER.=  2  LAYER=  4  STEP=  7  PERIOD=   3   (ROW,COL)
    WET(  1,  2)   WET(  2,  1)   

 CELL CONVERSIONS FOR ITER.=  2  LAYER=  6  STEP=  7  PERIOD=   3   (ROW,COL)
    WET(  1,  4)   WET(  4,  1)   

 CELL CONVERSIONS FOR ITER.=  2  LAYER=  8  STEP=  7  PERIOD=   3   (ROW,COL)
    WET(  2, 10)   WET(  3, 10)   WET(  5,  9)   WET(  7,  8)   WET(  8,  7)   
    WET(  9,  5)   WET( 10,  2)   WET( 10,  3)   
     6 CALLS TO PCG ROUTINE FOR TIME STEP   7 IN STRESS PERIOD    3
    53 TOTAL ITERATIONS

 MAXIMUM HEAD CHANGE FOR EACH ITERATION (1 INDICATES THE FIRST INNER ITERATION):

    HEAD CHANGE    HEAD CHANGE    HEAD CHANGE    HEAD CHANGE    HEAD CHANGE 
   LAYER,ROW,COL  LAYER,ROW,COL  LAYER,ROW,COL  LAYER,ROW,COL  LAYER,ROW,COL
 ---------------------------------------------------------------------------
  1  0.5339      0  0.1261      0 -0.3974E-01  0 -0.1803E-01  0 -0.7872E-02
   (  7,  1,  6)  ( 14, 29,  1)  ( 14, 30,  2)  ( 14,  1, 28)  ( 14, 28, 10)
  0 -0.5885E-02  0 -0.4801E-02  0 -0.3027E-02  0  0.1634E-02  0 -0.1218E-02
   ( 14, 34, 10)  ( 14, 33, 15)  ( 14, 32, 21)  ( 11,  2, 29)  ( 14,  1,  4)
  0  0.7733E-03  0 -0.6088E-03  0  0.2351E-03  0 -0.1197E-03  0 -0.8178E-04
   ( 14, 34, 14)  ( 14,  2,  2)  ( 10, 25, 25)  ( 14, 34,  3)  ( 14, 32, 27)
  1 -0.8305      0  0.3375      0  0.1495      0  0.1689E-01  0  0.1218E-01
   (  5,  1,  2)  ( 13,  1,  2)  ( 14,  1,  1)  ( 14,  4,  2)  ( 14,  4,  2)
  0  0.6818E-02  0  0.3933E-02  0  0.2709E-02  0  0.8192E-03  0  0.6271E-03
   ( 14,  5,  1)  ( 14,  6,  3)  ( 14,  1,  1)  ( 14,  5,  6)  ( 14,  4,  8)
  0  0.3427E-03  0  0.2005E-03  0  0.1573E-03  0  0.1078E-03  0  0.5914E-04
   ( 14,  4,  9)  ( 13,  7,  7)  (  5,  1,  1)  (  5,  1,  1)  (  5,  1,  1)
  1 -0.4422E-01  0 -0.2875E-01  0  0.1092E-01  0  0.1759E-02  0 -0.2356E-02
   (  4,  1,  1)  (  4,  1,  1)  ( 13,  2,  2)  ( 14, 34,  3)  ( 14,  1,  1)
  0 -0.1433E-02  0 -0.6356E-03  0 -0.2592E-03  0 -0.1836E-03  0  0.8997E-04
   (  7,  2,  1)  (  7,  2,  1)  ( 11,  1,  1)  ( 10,  1,  1)  ( 14,  1,  1)
  1 -0.3361E-02  0 -0.2009E-02  0 -0.6861E-03  0  0.5408E-03  0  0.2800E-03
   (  6,  3,  1)  ( 14,  2,  2)  ( 14, 32, 24)  ( 12,  2,  2)  ( 14,  2,  2)
  0  0.1520E-03  0 -0.1181E-03  0 -0.3297E-04  1 -0.3165E-03  0 -0.1179E-03
   ( 14,  2,  2)  (  8,  2,  2)  ( 14,  3,  1)  (  6,  3,  1)  (  6,  1,  3)
  0 -0.1897E-03  0 -0.3130E-04  1  0.4216E-04
   ( 14,  2,  2)  ( 14, 31,  2)  ( 13,  2,  2)

 MAXIMUM RESIDUAL FOR EACH ITERATION (1 INDICATES THE FIRST INNER ITERATION):

    RESIDUAL       RESIDUAL       RESIDUAL       RESIDUAL       RESIDUAL    
   LAYER,ROW,COL  LAYER,ROW,COL  LAYER,ROW,COL  LAYER,ROW,COL  LAYER,ROW,COL
 ---------------------------------------------------------------------------
  1   6.687      0  -1.593      0  -1.703      0  0.8316      0  0.5667    
   ( 11,  7,  8)  ( 13,  7,  8)  ( 13,  7,  8)  ( 14,  6,  7)  ( 14,  6,  7)
  0 -0.4329      0 -0.2398      0  0.1383      0 -0.9198E-01  0  0.5125E-01
   (  9,  8,  8)  (  9,  8,  8)  ( 14,  6,  9)  ( 11,  8,  7)  ( 14,  3, 10)
  0  0.3273E-01  0  0.2170E-01  0  0.1203E-01  0  0.6663E-02  0 -0.5907E-02
   ( 14,  2,  2)  ( 13,  8,  7)  ( 13,  8,  7)  ( 14,  1,  4)  ( 10,  8,  7)
  1   54.36      0   8.985      0  -3.771      0  -3.134      0  -2.504    
   (  5,  1,  2)  (  5,  1,  2)  (  5,  1,  1)  (  5,  1,  1)  (  5,  1,  1)
  0  -1.840      0  -1.336      0 -0.9198      0 -0.6846      0 -0.4662    
   (  5,  1,  1)  (  5,  1,  1)  (  5,  1,  1)  (  5,  1,  1)  (  5,  1,  1)
  0 -0.3277      0 -0.2263      0 -0.1468      0 -0.9123E-01  0 -0.5526E-01
   (  5,  1,  1)  (  5,  1,  1)  (  5,  1,  1)  (  5,  1,  1)  (  5,  1,  1)
  1   15.46      0   4.827      0   2.725      0   1.996      0  0.9705    
   (  4,  1,  1)  (  4,  1,  1)  (  4,  1,  1)  (  4,  1,  1)  (  4,  1,  1)
  0  0.4238      0  0.2220      0  0.1636      0  0.1130      0  0.7973E-01
   (  4,  1,  1)  (  4,  1,  1)  (  4,  1,  1)  (  4,  1,  1)  (  4,  1,  1)
  1   1.216      0  0.5266      0  0.2494      0  0.1562      0  0.1126    
   (  6,  3,  1)  (  6,  3,  1)  (  6,  3,  1)  (  6,  1,  3)  (  6,  1,  3)
  0  0.5854E-01  0 -0.2031E-01  0 -0.1405E-01  1  0.1336      0  0.9793E-01
   (  6,  1,  3)  (  7,  3,  1)  (  7,  3,  1)  (  6,  1,  3)  (  6,  1,  3)
  0  0.3222E-01  0  0.1993E-01  1  0.3008E-01
   (  6,  1,  3)  (  6,  1,  3)  (  6,  3,  1)



 NO OUTPUT CONTROL FOR STRESS PERIOD    3   TIME STEP   7
 
 SOLVING FOR HEAD 

 CELL CONVERSIONS FOR ITER.=  2  LAYER=  6  STEP=  8  PERIOD=   3   (ROW,COL)
    WET(  2,  4)   WET(  4,  2)   

 CELL CONVERSIONS FOR ITER.=  2  LAYER=  7  STEP=  8  PERIOD=   3   (ROW,COL)
    WET(  3,  6)   WET(  6,  3)   

 CELL CONVERSIONS FOR ITER.=  2  LAYER=  8  STEP=  8  PERIOD=   3   (ROW,COL)
    WET(  4, 10)   WET(  6,  9)   WET(  9,  6)   WET( 10,  4)   
     5 CALLS TO PCG ROUTINE FOR TIME STEP   8 IN STRESS PERIOD    3
    40 TOTAL ITERATIONS

 MAXIMUM HEAD CHANGE FOR EACH ITERATION (1 INDICATES THE FIRST INNER ITERATION):

    HEAD CHANGE    HEAD CHANGE    HEAD CHANGE    HEAD CHANGE    HEAD CHANGE 
   LAYER,ROW,COL  LAYER,ROW,COL  LAYER,ROW,COL  LAYER,ROW,COL  LAYER,ROW,COL
 ---------------------------------------------------------------------------
  1  0.6351      0  0.7850E-01  0 -0.2395E-01  0 -0.1875E-01  0 -0.9630E-02
   (  4,  2,  1)  ( 14,  1,  1)  ( 14,  1, 31)  ( 14,  1,  1)  ( 14,  1,  1)
  0 -0.6078E-02  0  0.3451E-02  0 -0.1681E-02  0  0.1133E-02  0 -0.9692E-03
   (  9,  4,  2)  (  6,  1,  1)  ( 14,  5,  5)  ( 14,  1, 29)  (  9,  1,  1)
  0  0.4982E-03  0 -0.3288E-03  0 -0.1533E-03  0 -0.9901E-04  1  0.3685    
   ( 10, 28,  8)  ( 14,  3,  1)  ( 14,  2,  2)  ( 14, 29, 20)  (  7,  6,  3)
  0 -0.1325      0  0.2567E-01  0  0.5934E-02  0  0.1220E-01  0  0.2637E-02
   ( 13,  1, 11)  ( 14,  1,  1)  ( 14,  2,  2)  (  9,  2,  2)  ( 14,  1,  3)
  0  0.2211E-02  0  0.6638E-03  0  0.7220E-03  0  0.2531E-03  0  0.2242E-03
   ( 14,  3,  1)  (  9,  6,  3)  (  9,  3,  6)  ( 14,  8,  1)  ( 14,  8,  1)
  0  0.9134E-04  1  0.1704E-01  0  0.8490E-02  0 -0.1876E-02  0  0.1181E-02
   ( 14, 10, 31)  (  7,  6,  3)  (  7,  3,  6)  ( 11,  5,  5)  (  6,  2,  4)
  0  0.7434E-03  0  0.4549E-03  0 -0.2488E-03  0 -0.1995E-03  0  0.5500E-04
   ( 11,  5,  5)  ( 14,  2, 36)  ( 13,  5,  5)  ( 13,  5,  5)  ( 14,  1,  2)
  1 -0.1113E-02  0 -0.4345E-03  0 -0.3598E-03  0  0.9542E-04  1 -0.8931E-04
   (  6,  2,  3)  (  6,  2,  3)  ( 14,  2,  2)  ( 14, 31, 35)  ( 14,  3,  3)

 MAXIMUM RESIDUAL FOR EACH ITERATION (1 INDICATES THE FIRST INNER ITERATION):

    RESIDUAL       RESIDUAL       RESIDUAL       RESIDUAL       RESIDUAL    
   LAYER,ROW,COL  LAYER,ROW,COL  LAYER,ROW,COL  LAYER,ROW,COL  LAYER,ROW,COL
 ---------------------------------------------------------------------------
  1   10.57      0  -2.465      0   1.762      0  -1.325      0 -0.8840    
   (  7,  1,  2)  (  5,  2,  2)  ( 14,  1,  1)  (  6,  1,  1)  (  6,  1,  1)
  0 -0.4036      0  0.1930      0  0.2168      0  0.1515      0 -0.8313E-01
   (  6,  1,  1)  ( 13,  1,  2)  (  8,  1,  1)  (  8,  1,  1)  ( 14,  1,  1)
  0 -0.5775E-01  0  0.2091E-01  0  0.1585E-01  0 -0.1212E-01  1  -30.68    
   ( 14,  1,  1)  ( 14,  2,  2)  (  7,  1,  1)  (  8,  2,  2)  (  7,  3,  6)
  0  -2.863      0   1.338      0   1.041      0 -0.6371      0 -0.4875    
   ( 10,  4, 10)  (  8,  3,  6)  (  8,  3,  6)  (  9,  3,  6)  (  9,  3,  6)
  0 -0.2864      0 -0.1966      0 -0.1236      0 -0.9249E-01  0 -0.5803E-01
   (  9,  3,  6)  (  9,  3,  6)  (  8,  5,  3)  (  8,  5,  3)  (  8,  5,  3)
  0 -0.4181E-01  1  -5.333      0  -1.454      0 -0.9003      0 -0.5876    
   (  8,  5,  3)  (  7,  3,  6)  (  7,  3,  6)  (  7,  3,  6)  (  7,  3,  6)
  0 -0.3399      0  0.1527      0  0.9074E-01  0  0.5689E-01  0  0.4383E-01
   (  7,  3,  6)  (  8,  3,  6)  (  8,  3,  6)  (  8,  3,  6)  (  8,  3,  6)
  1 -0.4600      0 -0.2681      0 -0.1131      0  0.8172E-01  1 -0.1222    
   (  6,  2,  2)  (  6,  2,  2)  (  6,  2,  2)  (  7,  2,  2)  (  6,  2,  2)



 NO OUTPUT CONTROL FOR STRESS PERIOD    3   TIME STEP   8
 
 SOLVING FOR HEAD 

 CELL CONVERSIONS FOR ITER.=  2  LAYER=  7  STEP=  9  PERIOD=   3   (ROW,COL)
    WET(  5,  5)   

 CELL CONVERSIONS FOR ITER.=  2  LAYER=  8  STEP=  9  PERIOD=   3   (ROW,COL)
    WET(  1, 11)   WET(  2, 11)   WET(  5, 10)   WET(  7,  9)   WET(  8,  8)   
    WET(  9,  7)   WET( 10,  5)   WET( 11,  1)   WET( 11,  2)   

 CELL CONVERSIONS FOR ITER.=  2  LAYER=  9  STEP=  9  PERIOD=   3   (ROW,COL)
    WET(  1, 26)   WET(  2, 26)   WET(  3, 26)   WET(  4, 25)   WET(  4, 26)   
    WET(  5, 25)   WET(  6, 25)   WET(  7, 25)   WET(  8, 24)   WET(  8, 25)   
    WET(  9, 24)   WET(  9, 25)   WET( 10, 24)   WET( 11, 23)   WET( 11, 24)   
    WET( 12, 23)   WET( 12, 24)   WET( 13, 22)   WET( 13, 23)   WET( 14, 22)   
    WET( 14, 23)   WET( 15, 21)   WET( 15, 22)   WET( 16, 20)   WET( 16, 21)   
    WET( 17, 19)   WET( 17, 20)   WET( 17, 21)   WET( 18, 18)   WET( 18, 19)   
    WET( 18, 20)   WET( 19, 17)   WET( 19, 18)   WET( 19, 19)   WET( 20, 16)   
    WET( 20, 17)   WET( 20, 18)   WET( 21, 15)   WET( 21, 16)   WET( 21, 17)   
    WET( 22, 13)   WET( 22, 14)   WET( 22, 15)   WET( 23, 11)   WET( 23, 12)   
    WET( 23, 13)   WET( 23, 14)   WET( 24,  8)   WET( 24,  9)   WET( 24, 10)   
    WET( 24, 11)   WET( 24, 12)   WET( 25,  4)   WET( 25,  5)   WET( 25,  6)   
    WET( 25,  7)   WET( 25,  8)   WET( 25,  9)   WET( 26,  1)   WET( 26,  2)   
    WET( 26,  3)   WET( 26,  4)   
     5 CALLS TO PCG ROUTINE FOR TIME STEP   9 IN STRESS PERIOD    3
    44 TOTAL ITERATIONS

 MAXIMUM HEAD CHANGE FOR EACH ITERATION (1 INDICATES THE FIRST INNER ITERATION):

    HEAD CHANGE    HEAD CHANGE    HEAD CHANGE    HEAD CHANGE    HEAD CHANGE 
   LAYER,ROW,COL  LAYER,ROW,COL  LAYER,ROW,COL  LAYER,ROW,COL  LAYER,ROW,COL
 ---------------------------------------------------------------------------
  1  0.5291      0 -0.8409E-01  0 -0.1985E-01  0 -0.1125E-01  0  0.7889E-02
   (  8,  7,  1)  ( 13,  7,  1)  ( 14,  1, 32)  ( 13, 10,  4)  ( 14, 37,  2)
  0 -0.4854E-02  0 -0.2432E-02  0 -0.2231E-02  0 -0.1861E-02  0 -0.9656E-03
   ( 14, 11,  2)  ( 14, 38,  2)  ( 12,  5,  5)  ( 14,  2,  1)  ( 11,  1,  1)
  0  0.4180E-03  0 -0.2015E-03  0 -0.1529E-03  0 -0.7633E-04  1 -0.3751    
   (  9,  5,  5)  ( 14, 34, 25)  ( 13,  5,  5)  ( 14, 29, 20)  ( 10, 19, 18)
  0 -0.1668      0  0.9366E-01  0  0.3995E-01  0  0.2004E-01  0  0.1119E-01
   ( 14, 31,  1)  ( 14, 31,  1)  ( 14, 29,  1)  ( 14, 30, 11)  ( 14, 28, 15)
  0  0.5637E-02  0  0.4287E-02  0 -0.2068E-02  0  0.1217E-02  0 -0.7586E-03
   ( 14, 22, 27)  ( 14, 26, 26)  ( 14, 28, 28)  ( 14, 31, 31)  ( 10, 21, 31)
  0 -0.3629E-03  0 -0.2447E-03  0  0.1745E-03  0  0.1167E-03  0  0.9414E-04
   ( 12, 26, 30)  ( 14, 26, 35)  ( 14, 21, 30)  ( 14, 25, 29)  ( 14, 26, 26)
  1  0.1339E-01  0  0.5117E-02  0 -0.1845E-02  0 -0.6566E-03  0 -0.7100E-03
   (  7,  5,  5)  (  7,  5,  5)  ( 11,  4,  6)  ( 12,  4,  6)  (  9,  2,  2)
  0 -0.3748E-03  0  0.1791E-03  0  0.1128E-03  0 -0.7768E-04  1 -0.4088E-03
   (  8,  2,  2)  ( 11,  2,  7)  ( 14, 31, 12)  ( 11,  2,  7)  (  7,  5,  4)
  0 -0.1509E-03  0  0.1982E-03  0  0.6106E-04  1 -0.3433E-04
   (  7,  5,  4)  ( 14,  1,  1)  ( 13,  5,  4)  ( 14,  1,  1)

 MAXIMUM RESIDUAL FOR EACH ITERATION (1 INDICATES THE FIRST INNER ITERATION):

    RESIDUAL       RESIDUAL       RESIDUAL       RESIDUAL       RESIDUAL    
   LAYER,ROW,COL  LAYER,ROW,COL  LAYER,ROW,COL  LAYER,ROW,COL  LAYER,ROW,COL
 ---------------------------------------------------------------------------
  1   7.990      0   1.665      0 -0.8048      0  0.7959      0  0.4794    
   ( 10,  4,  6)  ( 10,  4, 10)  (  9,  6, 10)  ( 14,  7,  8)  ( 14,  7,  8)
  0  0.2387      0  0.1865      0  0.9866E-01  0 -0.1173      0 -0.5294E-01
   ( 12,  5,  5)  ( 14,  5,  5)  ( 14,  4,  4)  (  9,  5,  5)  (  9,  5,  5)
  0 -0.2064E-01  0  0.1931E-01  0  0.9620E-02  0 -0.6226E-02  1  -22.01    
   ( 10,  8,  8)  ( 12,  5,  5)  ( 13,  4,  6)  (  9,  7,  1)  (  8,  1, 11)
  0  -5.656      0   3.298      0   1.619      0 -0.8146      0 -0.5513    
   (  8,  1, 11)  (  9,  5, 10)  (  9,  1, 11)  (  8,  1, 11)  (  9,  5,  5)
  0 -0.3804      0 -0.1905      0 -0.1332      0 -0.1001      0 -0.7418E-01
   ( 10,  5, 10)  ( 10,  5, 10)  (  9,  7,  8)  (  9,  7,  8)  (  9,  7,  8)
  0 -0.5669E-01  0 -0.3860E-01  0 -0.2586E-01  0 -0.1716E-01  0 -0.1136E-01
   (  9,  7,  8)  (  9,  7,  8)  (  9,  7,  8)  (  9,  7,  8)  (  9,  7,  8)
  1  -3.875      0  -1.124      0 -0.5482      0 -0.3548      0  0.2338    
   (  7,  5,  5)  (  7,  5,  5)  (  7,  5,  5)  (  7,  5,  5)  (  8,  5,  5)
  0  0.1629      0  0.8347E-01  0  0.4630E-01  0  0.2779E-01  1 -0.2043    
   (  8,  5,  5)  (  8,  5,  5)  (  8,  5,  5)  (  8,  5,  5)  (  7,  5,  5)
  0 -0.1609      0 -0.6536E-01  0 -0.3104E-01  1 -0.3525E-01
   (  7,  5,  5)  (  7,  5,  5)  (  7,  5,  5)  (  7,  5,  5)



 NO OUTPUT CONTROL FOR STRESS PERIOD    3   TIME STEP   9
 
 SOLVING FOR HEAD 

 CELL CONVERSIONS FOR ITER.=  2  LAYER=  7  STEP= 10  PERIOD=   3   (ROW,COL)
    WET(  1,  7)   WET(  2,  7)   WET(  4,  6)   WET(  6,  4)   WET(  7,  1)   
    WET(  7,  2)   

 CELL CONVERSIONS FOR ITER.=  2  LAYER=  8  STEP= 10  PERIOD=   3   (ROW,COL)
    WET(  3, 11)   WET(  4, 11)   WET(  6, 10)   WET( 10,  6)   WET( 11,  3)   
    WET( 11,  4)   
     5 CALLS TO PCG ROUTINE FOR TIME STEP  10 IN STRESS PERIOD    3
    44 TOTAL ITERATIONS

 MAXIMUM HEAD CHANGE FOR EACH ITERATION (1 INDICATES THE FIRST INNER ITERATION):

    HEAD CHANGE    HEAD CHANGE    HEAD CHANGE    HEAD CHANGE    HEAD CHANGE 
   LAYER,ROW,COL  LAYER,ROW,COL  LAYER,ROW,COL  LAYER,ROW,COL  LAYER,ROW,COL
 ---------------------------------------------------------------------------
  1  0.4231      0  0.1053      0 -0.4477E-01  0  0.2095E-01  0 -0.9426E-02
   (  8,  7,  2)  ( 14,  1, 31)  ( 14,  1, 30)  ( 13,  7,  2)  ( 14, 30, 11)
  0 -0.6180E-02  0 -0.3581E-02  0 -0.2383E-02  0  0.1443E-02  0  0.9880E-03
   ( 10,  2,  7)  ( 14, 34, 15)  ( 14, 33, 20)  ( 11, 30,  2)  ( 11, 32, 24)
  0  0.7439E-03  0  0.3374E-03  0  0.2014E-03  0 -0.1222E-03  0 -0.9495E-04
   ( 14, 31, 31)  ( 13, 25, 30)  ( 14, 25, 35)  ( 14, 21, 30)  ( 14, 25, 29)
  1  0.3328      0  0.1205      0 -0.3065E-01  0  0.7285E-02  0  0.4163E-02
   (  7,  4,  6)  (  7,  7,  1)  ( 10,  2,  2)  (  9,  2,  2)  (  7,  2,  2)
  0  0.4977E-02  0  0.1375E-02  0  0.2278E-02  0 -0.6239E-03  0  0.5990E-03
   (  8,  3,  1)  ( 14,  1,  1)  ( 14,  1,  1)  ( 14, 28, 28)  ( 13,  1,  3)
  0 -0.1529E-03  0 -0.1423E-03  0 -0.5251E-04  1 -0.1465E-01  0  0.7958E-02
   ( 14, 35, 22)  ( 13, 11,  1)  ( 14, 35, 10)  (  7,  1,  6)  (  4,  1,  1)
  0  0.5942E-02  0 -0.1211E-02  0 -0.2139E-02  0 -0.4406E-03  0  0.3311E-03
   (  5,  2,  2)  ( 14,  1,  1)  ( 14,  2,  2)  ( 14,  2,  1)  ( 14, 29, 29)
  0 -0.1696E-03  0  0.1802E-03  0  0.4926E-04  1 -0.8745E-03  0  0.4949E-03
   ( 14, 29, 29)  (  8,  1,  1)  (  8,  1,  1)  (  7,  1,  6)  ( 13,  2,  2)
  0  0.2041E-03  0 -0.3044E-03  0  0.5824E-04  1 -0.3638E-04
   ( 14,  2,  2)  (  5,  2,  2)  ( 14, 28, 28)  ( 14, 30, 30)

 MAXIMUM RESIDUAL FOR EACH ITERATION (1 INDICATES THE FIRST INNER ITERATION):

    RESIDUAL       RESIDUAL       RESIDUAL       RESIDUAL       RESIDUAL    
   LAYER,ROW,COL  LAYER,ROW,COL  LAYER,ROW,COL  LAYER,ROW,COL  LAYER,ROW,COL
 ---------------------------------------------------------------------------
  1   5.008      0  -3.063      0  -1.693      0  0.6097      0  0.6009    
   (  9,  2,  7)  ( 13,  2,  7)  ( 13,  2,  7)  ( 14,  4, 10)  (  9,  2,  7)
  0 -0.2709      0 -0.1643      0 -0.9205E-01  0  0.6472E-01  0  0.5197E-01
   (  9,  5, 11)  (  9,  5, 11)  ( 10, 14, 21)  ( 14,  2,  7)  ( 14,  2,  7)
  0  0.3103E-01  0  0.1835E-01  0 -0.9368E-02  0 -0.7665E-02  0 -0.3860E-02
   ( 14,  4, 11)  ( 14,  4, 11)  (  9,  7,  2)  ( 10, 11,  4)  ( 10,  6, 10)
  1  -22.30      0  -2.009      0 -0.9619      0 -0.8013      0 -0.6748    
   (  7,  1,  7)  (  7,  1,  7)  (  7,  2,  2)  (  9,  4,  6)  (  9,  4,  6)
  0 -0.4131      0 -0.2730      0 -0.1421      0 -0.1141      0 -0.7339E-01
   (  9,  4,  6)  (  9,  4,  6)  (  8,  1,  6)  (  8,  6,  1)  (  8,  6,  1)
  0 -0.5617E-01  0 -0.3456E-01  0 -0.2597E-01  1  -4.353      0  -1.282    
   (  8,  6,  1)  (  8,  6,  1)  (  8,  6,  1)  (  7,  4,  6)  (  7,  4,  6)
  0 -0.5757      0 -0.4111      0  0.2649      0  0.1680      0  0.7388E-01
   (  7,  4,  6)  (  7,  4,  6)  (  8,  4,  6)  (  8,  6,  4)  (  8,  6,  4)
  0  0.4732E-01  0  0.2638E-01  0  0.1970E-01  1  0.2698      0  0.1571    
   (  8,  6,  4)  (  8,  6,  4)  (  8,  6,  4)  (  7,  6,  1)  (  7,  6,  1)
  0  0.6334E-01  0  0.2913E-01  0  0.2258E-01  1  0.3091E-01
   (  7,  6,  1)  (  7,  6,  1)  (  7,  6,  1)  (  7,  6,  1)



 NO OUTPUT CONTROL FOR STRESS PERIOD    3   TIME STEP  10
 
 SOLVING FOR HEAD 

 CELL CONVERSIONS FOR ITER.=  2  LAYER=  4  STEP= 11  PERIOD=   3   (ROW,COL)
    WET(  2,  2)   

 CELL CONVERSIONS FOR ITER.=  2  LAYER=  8  STEP= 11  PERIOD=   3   (ROW,COL)
    WET(  5, 11)   WET(  8,  9)   WET(  9,  8)   WET( 11,  5)   

 CELL CONVERSIONS FOR ITER.=  2  LAYER=  9  STEP= 11  PERIOD=   3   (ROW,COL)
    WET(  1, 27)   WET(  2, 27)   WET(  3, 27)   WET(  4, 27)   WET(  5, 26)   
    WET(  6, 26)   WET(  7, 26)   WET(  8, 26)   WET( 10, 25)   WET( 25, 10)   
    WET( 26,  5)   WET( 26,  6)   WET( 26,  7)   WET( 26,  8)   WET( 27,  1)   
    WET( 27,  2)   WET( 27,  3)   WET( 27,  4)   
     5 CALLS TO PCG ROUTINE FOR TIME STEP  11 IN STRESS PERIOD    3
    44 TOTAL ITERATIONS

 MAXIMUM HEAD CHANGE FOR EACH ITERATION (1 INDICATES THE FIRST INNER ITERATION):

    HEAD CHANGE    HEAD CHANGE    HEAD CHANGE    HEAD CHANGE    HEAD CHANGE 
   LAYER,ROW,COL  LAYER,ROW,COL  LAYER,ROW,COL  LAYER,ROW,COL  LAYER,ROW,COL
 ---------------------------------------------------------------------------
  1  0.4211      0 -0.8865E-01  0 -0.2422E-01  0  0.1249E-01  0  0.6571E-02
   (  9, 12,  2)  ( 13, 12,  2)  ( 14, 32,  1)  ( 13,  2,  2)  ( 14,  2, 37)
  0 -0.4078E-02  0  0.2305E-02  0 -0.1543E-02  0 -0.1226E-02  0 -0.1375E-02
   ( 14,  3, 37)  ( 12,  2,  2)  ( 14, 28, 28)  ( 14,  2,  2)  ( 13,  2,  2)
  0 -0.4963E-03  0 -0.2531E-03  0 -0.1198E-03  0  0.8180E-04  1  0.7326    
   ( 14,  5,  5)  ( 14,  5,  3)  ( 14, 30,  9)  ( 10,  2, 12)  (  4,  2,  2)
  0  0.2388      0  0.6671E-01  0  0.2810E-01  0  0.1361E-01  0  0.7298E-02
   ( 12,  2,  2)  ( 14,  1, 32)  ( 14,  3,  1)  ( 14, 29,  3)  ( 14,  2, 32)
  0  0.4209E-02  0  0.2500E-02  0  0.1199E-02  0  0.9354E-03  0  0.5099E-03
   ( 14,  3, 26)  ( 13,  1,  3)  ( 14, 22, 33)  ( 13, 24,  3)  ( 14, 29, 29)
  0  0.2718E-03  0  0.1519E-03  0  0.9607E-04  1  0.3845E-01  0  0.2174E-01
   ( 13,  1, 23)  ( 13,  2, 22)  ( 14, 32, 23)  (  4,  2,  2)  (  4,  2,  2)
  0 -0.7004E-02  0  0.1528E-02  0  0.2800E-02  0  0.5699E-03  0 -0.6989E-03
   ( 10,  1,  3)  ( 14, 32, 24)  ( 14,  1,  1)  ( 14, 33, 14)  (  6,  2,  2)
  0 -0.1378E-03  0 -0.1562E-03  0 -0.9390E-04  1  0.1206E-02  0 -0.5782E-03
   ( 14,  1,  1)  ( 14,  1,  1)  ( 14,  1,  1)  (  4,  2,  2)  (  4,  2,  1)
  0  0.2984E-03  0  0.1483E-03  0  0.8521E-04  1  0.6265E-04
   (  4,  2,  2)  (  4,  2,  2)  ( 14,  2,  2)  ( 14,  1,  1)

 MAXIMUM RESIDUAL FOR EACH ITERATION (1 INDICATES THE FIRST INNER ITERATION):

    RESIDUAL       RESIDUAL       RESIDUAL       RESIDUAL       RESIDUAL    
   LAYER,ROW,COL  LAYER,ROW,COL  LAYER,ROW,COL  LAYER,ROW,COL  LAYER,ROW,COL
 ---------------------------------------------------------------------------
  1   6.659      0   1.707      0  0.8243      0  0.6980      0 -0.4698    
   ( 10,  2, 12)  ( 10,  3, 11)  ( 14,  2, 11)  (  7,  2,  2)  ( 13,  3, 11)
  0 -0.3015      0  0.1113      0  0.1160      0  0.8210E-01  0  0.4140E-01
   (  9,  2,  2)  (  9,  4,  6)  ( 13,  2,  2)  ( 13,  2,  2)  ( 14,  3,  7)
  0 -0.3423E-01  0 -0.1429E-01  0 -0.1102E-01  0 -0.4258E-02  1  -63.24    
   (  7,  2,  2)  ( 10,  2, 12)  ( 10,  2, 12)  (  9,  4,  6)  (  4,  2,  2)
  0   16.48      0   6.591      0   2.280      0  -1.625      0  -1.056    
   (  5,  2,  2)  (  5,  2,  2)  (  5,  2,  2)  (  7,  2,  2)  (  7,  2,  2)
  0 -0.7168      0 -0.5094      0 -0.3924      0 -0.2698      0 -0.2057    
   (  5,  1,  2)  (  5,  1,  2)  (  5,  1,  2)  (  5,  1,  2)  (  5,  1,  2)
  0 -0.1417      0 -0.9823E-01  0 -0.6929E-01  1  -12.81      0  -5.031    
   (  5,  1,  2)  (  5,  1,  2)  (  5,  1,  2)  (  4,  2,  2)  (  4,  2,  2)
  0  -2.489      0  -1.936      0  0.6505      0  0.4508      0  0.2585    
   (  4,  2,  2)  (  4,  2,  2)  (  5,  2,  2)  (  5,  2,  2)  (  5,  2,  2)
  0  0.2119      0  0.1382      0  0.7054E-01  1 -0.5513      0 -0.3145    
   (  5,  2,  2)  (  5,  2,  2)  (  5,  2,  2)  (  4,  2,  2)  (  4,  2,  2)
  0 -0.1533      0 -0.9636E-01  0 -0.6685E-01  1 -0.7609E-01
   (  4,  2,  2)  (  4,  2,  2)  (  4,  2,  2)  (  4,  2,  2)



 NO OUTPUT CONTROL FOR STRESS PERIOD    3   TIME STEP  11
 
 SOLVING FOR HEAD 

 CELL CONVERSIONS FOR ITER.=  2  LAYER=  5  STEP= 12  PERIOD=   3   (ROW,COL)
    WET(  1,  3)   WET(  3,  1)   

 CELL CONVERSIONS FOR ITER.=  2  LAYER=  6  STEP= 12  PERIOD=   3   (ROW,COL)
    WET(  3,  4)   WET(  4,  3)   

 CELL CONVERSIONS FOR ITER.=  2  LAYER=  7  STEP= 12  PERIOD=   3   (ROW,COL)
    WET(  3,  7)   WET(  5,  6)   WET(  6,  5)   WET(  7,  3)   

 CELL CONVERSIONS FOR ITER.=  2  LAYER=  8  STEP= 12  PERIOD=   3   (ROW,COL)
    WET(  1, 12)   WET(  2, 12)   WET(  3, 12)   WET(  7, 10)   WET( 10,  7)   
    WET( 12,  1)   WET( 12,  2)   WET( 12,  3)   

 CELL CONVERSIONS FOR ITER.=  2  LAYER=  9  STEP= 12  PERIOD=   3   (ROW,COL)
    WET(  9, 26)   WET( 10, 26)   WET( 11, 25)   WET( 11, 26)   WET( 12, 25)   
    WET( 13, 24)   WET( 13, 25)   WET( 14, 24)   WET( 14, 25)   WET( 15, 23)   
    WET( 15, 24)   WET( 16, 22)   WET( 16, 23)   WET( 16, 24)   WET( 17, 22)   
    WET( 17, 23)   WET( 18, 21)   WET( 18, 22)   WET( 19, 20)   WET( 19, 21)   
    WET( 19, 22)   WET( 20, 19)   WET( 20, 20)   WET( 20, 21)   WET( 21, 18)   
    WET( 21, 19)   WET( 21, 20)   WET( 22, 16)   WET( 22, 17)   WET( 22, 18)   
    WET( 22, 19)   WET( 23, 15)   WET( 23, 16)   WET( 23, 17)   WET( 24, 13)   
    WET( 24, 14)   WET( 24, 15)   WET( 24, 16)   WET( 25, 11)   WET( 25, 12)   
    WET( 25, 13)   WET( 25, 14)   WET( 26,  9)   WET( 26, 10)   WET( 26, 11)   
     7 CALLS TO PCG ROUTINE FOR TIME STEP  12 IN STRESS PERIOD    3
    60 TOTAL ITERATIONS

 MAXIMUM HEAD CHANGE FOR EACH ITERATION (1 INDICATES THE FIRST INNER ITERATION):

    HEAD CHANGE    HEAD CHANGE    HEAD CHANGE    HEAD CHANGE    HEAD CHANGE 
   LAYER,ROW,COL  LAYER,ROW,COL  LAYER,ROW,COL  LAYER,ROW,COL  LAYER,ROW,COL
 ---------------------------------------------------------------------------
  1  0.5346      0 -0.9788E-01  0 -0.3741E-01  0 -0.1335E-01  0 -0.7815E-02
   (  4,  2,  2)  ( 10,  2,  2)  ( 14, 33,  2)  ( 14, 31,  5)  ( 14, 31, 10)
  0 -0.4991E-02  0 -0.3007E-02  0 -0.2292E-02  0  0.1643E-02  0 -0.9551E-03
   ( 14, 35,  9)  ( 14, 37,  2)  ( 13,  3,  1)  ( 14, 29, 29)  ( 14, 32, 32)
  0  0.4561E-03  0  0.2547E-03  0 -0.1954E-03  0 -0.1284E-03  0  0.5297E-04
   ( 13, 11, 31)  ( 10, 16, 31)  ( 11,  1,  3)  ( 13,  2,  2)  ( 12, 12,  3)
  1 -0.3721      0  0.1319      0  0.6378E-01  0  0.2727E-01  0  0.1877E-01
   ( 10, 20, 20)  ( 13, 12,  2)  ( 14, 31, 10)  ( 14, 35,  8)  ( 14, 34,  1)
  0  0.1369E-01  0  0.5658E-02  0  0.2972E-02  0 -0.1441E-02  0 -0.1070E-02
   ( 14, 29, 29)  ( 14, 34, 26)  ( 14, 34, 34)  ( 14,  3, 36)  ( 13, 31, 25)
  0 -0.6693E-03  0  0.3161E-03  0  0.2046E-03  0  0.1451E-03  0  0.1013E-03
   ( 11, 20, 30)  ( 13, 17, 17)  ( 13, 16, 17)  ( 13, 16, 16)  ( 14, 27, 27)
  0  0.5388E-04  1  0.2793E-01  0  0.1741E-01  0 -0.7973E-02  0  0.2250E-02
   ( 14, 32, 32)  (  5,  1,  3)  ( 14,  2,  2)  (  4,  2,  2)  ( 14,  1,  1)
  0  0.1762E-02  0 -0.1090E-02  0 -0.5193E-03  0 -0.1281E-03  0 -0.1269E-03
   ( 10,  2,  2)  (  6,  1,  1)  ( 14,  2,  2)  ( 14,  2,  2)  (  5,  1,  2)
  0 -0.8842E-04  1 -0.6374E-02  0 -0.4605E-02  0  0.7402E-03  0  0.1368E-02
   ( 14,  1,  1)  (  5,  2,  1)  (  5,  1,  2)  ( 14,  1,  2)  ( 14,  1,  1)
  0  0.6767E-03  0  0.5582E-03  0 -0.2044E-03  0 -0.2104E-03  0 -0.4245E-04
   ( 14,  1,  1)  ( 14,  1,  1)  (  6,  1,  1)  (  6,  1,  1)  ( 14,  2,  2)
  1 -0.1135E-02  0 -0.8378E-03  0  0.1430E-03  0  0.2301E-03  0  0.1221E-03
   (  5,  1,  2)  (  5,  1,  2)  ( 14,  1,  2)  ( 14,  1,  1)  ( 14,  1,  1)
  0  0.1170E-03  0 -0.3412E-04  1 -0.2058E-03  0 -0.9672E-04  1 -0.4492E-04
   ( 14,  1,  1)  (  6,  1,  1)  (  5,  2,  1)  (  5,  2,  1)  ( 14, 30, 30)

 MAXIMUM RESIDUAL FOR EACH ITERATION (1 INDICATES THE FIRST INNER ITERATION):

    RESIDUAL       RESIDUAL       RESIDUAL       RESIDUAL       RESIDUAL    
   LAYER,ROW,COL  LAYER,ROW,COL  LAYER,ROW,COL  LAYER,ROW,COL  LAYER,ROW,COL
 ---------------------------------------------------------------------------
  1   13.55      0  -3.308      0  -2.397      0   1.601      0   1.129    
   (  7,  2,  2)  ( 13,  2,  2)  ( 13,  2,  2)  (  5,  2,  2)  (  5,  2,  2)
  0  0.6301      0  0.2321      0 -0.1611      0 -0.1503      0 -0.1190    
   (  5,  2,  2)  (  5,  2,  2)  (  8,  2,  2)  (  7,  2,  2)  (  7,  2,  2)
  0 -0.7724E-01  0  0.3112E-01  0  0.1852E-01  0  0.7094E-02  0 -0.6299E-02
   (  7,  2,  2)  ( 12,  2,  2)  ( 11,  2,  2)  ( 10,  2,  2)  ( 13,  2,  2)
  1  -21.00      0   5.659      0   3.447      0   1.475      0  0.8614    
   (  8,  1, 12)  (  8,  3,  7)  (  8,  3,  7)  (  9,  1, 12)  (  6,  1,  3)
  0 -0.5449      0 -0.3627      0 -0.2143      0 -0.1520      0 -0.1189    
   (  9,  3,  7)  ( 10,  7, 10)  ( 10,  7, 10)  (  7,  3,  3)  (  7,  3,  3)
  0 -0.8257E-01  0 -0.5676E-01  0 -0.3953E-01  0 -0.2773E-01  0 -0.2013E-01
   (  7,  3,  3)  (  7,  3,  3)  (  7,  3,  3)  (  7,  3,  3)  (  7,  3,  3)
  0 -0.1390E-01  1  -7.879      0  -2.489      0  -1.233      0 -0.8214    
   (  7,  3,  3)  (  5,  1,  3)  (  5,  1,  3)  (  5,  1,  3)  (  5,  1,  3)
  0 -0.3878      0 -0.1758      0 -0.9024E-01  0 -0.6616E-01  0  0.4060E-01
   (  5,  1,  3)  (  5,  1,  3)  (  5,  1,  3)  (  5,  1,  3)  (  6,  1,  3)
  0  0.2926E-01  1  -1.919      0 -0.6994      0 -0.4613      0 -0.2687    
   (  6,  1,  3)  (  5,  3,  1)  (  5,  3,  1)  (  5,  3,  1)  (  5,  1,  3)
  0 -0.1771      0 -0.6973E-01  0 -0.3889E-01  0  0.2135E-01  0  0.1689E-01
   (  5,  1,  3)  (  5,  1,  3)  (  5,  1,  3)  (  6,  1,  3)  (  6,  1,  3)
  1 -0.3574      0 -0.1357      0 -0.8386E-01  0 -0.4993E-01  0 -0.3404E-01
   (  5,  1,  3)  (  5,  1,  3)  (  5,  1,  3)  (  5,  1,  3)  (  5,  1,  3)
  0 -0.1257E-01  0  0.7160E-02  1 -0.7036E-01  0 -0.4921E-01  1 -0.5461E-01
   (  5,  1,  3)  (  6,  1,  1)  (  5,  1,  3)  (  5,  1,  3)  (  5,  1,  3)



 NO OUTPUT CONTROL FOR STRESS PERIOD    3   TIME STEP  12
 
 SOLVING FOR HEAD 

 CELL CONVERSIONS FOR ITER.=  2  LAYER=  8  STEP= 13  PERIOD=   3   (ROW,COL)
    WET(  4, 12)   WET(  6, 11)   WET(  8, 10)   WET(  9,  9)   WET( 10,  8)   
    WET( 11,  6)   WET( 12,  4)   

 CELL CONVERSIONS FOR ITER.=  2  LAYER=  9  STEP= 13  PERIOD=   3   (ROW,COL)
    WET(  1, 28)   WET(  2, 28)   WET(  3, 28)   WET(  4, 28)   WET(  5, 27)   
    WET(  5, 28)   WET(  6, 27)   WET(  7, 27)   WET(  8, 27)   WET( 27,  5)   
    WET( 27,  6)   WET( 27,  7)   WET( 27,  8)   WET( 28,  1)   WET( 28,  2)   
    WET( 28,  3)   WET( 28,  4)   WET( 28,  5)   
     5 CALLS TO PCG ROUTINE FOR TIME STEP  13 IN STRESS PERIOD    3
    43 TOTAL ITERATIONS

 MAXIMUM HEAD CHANGE FOR EACH ITERATION (1 INDICATES THE FIRST INNER ITERATION):

    HEAD CHANGE    HEAD CHANGE    HEAD CHANGE    HEAD CHANGE    HEAD CHANGE 
   LAYER,ROW,COL  LAYER,ROW,COL  LAYER,ROW,COL  LAYER,ROW,COL  LAYER,ROW,COL
 ---------------------------------------------------------------------------
  1  0.3618      0  0.7318E-01  0 -0.2303E-01  0 -0.1375E-01  0 -0.7664E-02
   (  8, 10,  7)  ( 14,  1,  1)  ( 14,  9, 30)  ( 14,  7, 34)  ( 14, 36,  5)
  0 -0.6144E-02  0 -0.3226E-02  0 -0.1935E-02  0  0.1044E-02  0  0.7196E-03
   ( 14, 28, 28)  ( 14, 33, 26)  ( 14, 30, 30)  ( 12, 34, 10)  ( 10, 25, 30)
  0  0.6624E-03  0  0.2782E-03  0 -0.2846E-03  0 -0.1472E-03  0 -0.6304E-04
   ( 10, 20, 30)  ( 12, 34,  3)  ( 11,  2,  2)  ( 14, 28, 28)  ( 14, 35, 21)
  1 -0.2967      0  0.1281      0  0.6974E-01  0  0.2699E-01  0  0.1352E-01
   ( 10,  5, 28)  ( 14,  2,  2)  ( 14, 33,  1)  ( 14, 30,  1)  ( 14,  3, 30)
  0  0.7451E-02  0  0.3887E-02  0  0.2329E-02  0  0.1197E-02  0  0.7055E-03
   ( 14, 27,  4)  ( 14, 27,  3)  ( 14, 26,  4)  ( 14, 20, 33)  ( 14, 26,  1)
  0  0.3883E-03  0  0.2200E-03  0  0.1505E-03  0 -0.8369E-04  1  0.6331E-02
   ( 14, 25,  1)  ( 13, 24,  1)  ( 13, 23,  1)  ( 14, 29, 29)  (  8, 11,  6)
  0  0.2709E-02  0  0.1249E-02  0 -0.1132E-02  0 -0.2688E-03  0  0.3308E-03
   (  8,  9,  9)  ( 14, 32, 32)  ( 13,  2,  2)  ( 14, 13, 33)  (  9,  2,  2)
  0  0.1236E-03  0 -0.1041E-03  0  0.5932E-04  1 -0.4021E-03  0 -0.1551E-03
   ( 14, 21, 35)  ( 13,  2,  2)  ( 14, 36, 36)  (  5,  2,  1)  (  5,  1,  2)
  0 -0.1393E-03  0  0.4740E-04  1  0.4393E-04
   (  5,  1,  2)  ( 14,  1,  2)  (  5,  3,  1)

 MAXIMUM RESIDUAL FOR EACH ITERATION (1 INDICATES THE FIRST INNER ITERATION):

    RESIDUAL       RESIDUAL       RESIDUAL       RESIDUAL       RESIDUAL    
   LAYER,ROW,COL  LAYER,ROW,COL  LAYER,ROW,COL  LAYER,ROW,COL  LAYER,ROW,COL
 ---------------------------------------------------------------------------
  1   5.850      0  -1.984      0  -1.231      0  0.5657      0  0.4249    
   ( 11,  7, 11)  ( 13,  4,  7)  ( 13,  7, 11)  (  9,  4,  7)  (  9,  4,  7)
  0  0.2254      0  0.1525      0  0.9728E-01  0 -0.7132E-01  0  0.4180E-01
   ( 14, 14, 23)  ( 14, 14, 23)  ( 14, 20, 19)  (  7,  2,  2)  ( 14,  4,  7)
  0  0.3091E-01  0  0.1697E-01  0 -0.9249E-02  0 -0.7235E-02  0  0.3719E-02
   ( 10,  2,  2)  (  9,  2,  2)  (  9,  4,  7)  ( 12,  2,  2)  ( 13,  7,  4)
  1  -30.51      0  -7.654      0   3.462      0   1.562      0  0.7512    
   (  8,  6, 11)  (  8,  6, 11)  (  9,  6, 11)  (  9,  6, 11)  (  9,  6, 11)
  0 -0.3668      0 -0.3420      0 -0.2290      0  0.1499      0 -0.1023    
   ( 14,  4, 27)  ( 10,  6, 11)  ( 10,  6, 11)  ( 11,  4, 27)  (  9,  8,  9)
  0 -0.7315E-01  0 -0.5399E-01  0 -0.3784E-01  0 -0.2697E-01  1  -1.578    
   (  9,  8,  9)  (  9,  8,  9)  (  9,  8,  9)  (  9,  8,  9)  (  8,  6, 11)
  0 -0.6369      0 -0.3693      0 -0.1781      0 -0.1290      0  0.7693E-01
   (  8,  6, 11)  (  8,  6, 11)  (  8,  6, 11)  (  8,  6, 11)  (  9,  6, 11)
  0  0.5442E-01  0  0.3190E-01  0  0.2003E-01  1 -0.1346      0 -0.9545E-01
   (  9,  6, 11)  (  9,  6, 11)  (  9,  6, 11)  (  5,  1,  3)  (  5,  1,  3)
  0 -0.3567E-01  0 -0.2162E-01  1 -0.4016E-01
   (  5,  1,  3)  (  5,  1,  3)  (  5,  1,  3)



 NO OUTPUT CONTROL FOR STRESS PERIOD    3   TIME STEP  13
 
 SOLVING FOR HEAD 

 CELL CONVERSIONS FOR ITER.=  2  LAYER=  6  STEP= 14  PERIOD=   3   (ROW,COL)
    WET(  1,  5)   WET(  5,  1)   

 CELL CONVERSIONS FOR ITER.=  2  LAYER=  7  STEP= 14  PERIOD=   3   (ROW,COL)
    WET(  1,  8)   WET(  4,  7)   WET(  7,  4)   WET(  8,  1)   

 CELL CONVERSIONS FOR ITER.=  2  LAYER=  8  STEP= 14  PERIOD=   3   (ROW,COL)
    WET(  5, 12)   WET(  7, 11)   WET( 11,  7)   WET( 12,  5)   

 CELL CONVERSIONS FOR ITER.=  2  LAYER=  9  STEP= 14  PERIOD=   3   (ROW,COL)
    WET(  9, 27)   WET( 10, 27)   WET( 12, 26)   WET( 26, 12)   WET( 27,  9)   
    WET( 27, 10)   
     5 CALLS TO PCG ROUTINE FOR TIME STEP  14 IN STRESS PERIOD    3
    42 TOTAL ITERATIONS

 MAXIMUM HEAD CHANGE FOR EACH ITERATION (1 INDICATES THE FIRST INNER ITERATION):

    HEAD CHANGE    HEAD CHANGE    HEAD CHANGE    HEAD CHANGE    HEAD CHANGE 
   LAYER,ROW,COL  LAYER,ROW,COL  LAYER,ROW,COL  LAYER,ROW,COL  LAYER,ROW,COL
 ---------------------------------------------------------------------------
  1  0.3909      0  0.8539E-01  0 -0.4125E-01  0  0.1514E-01  0 -0.8895E-02
   (  8,  2,  8)  ( 14, 33,  1)  ( 14,  1, 32)  ( 13,  8,  2)  ( 14, 10, 31)
  0 -0.4876E-02  0 -0.2367E-02  0 -0.1923E-02  0  0.1545E-02  0 -0.8886E-03
   ( 14, 35,  2)  ( 14,  2, 37)  ( 14, 28, 28)  ( 14, 31, 31)  ( 14, 34, 34)
  0  0.4434E-03  0 -0.2413E-03  0 -0.1425E-03  0  0.1542E-03  0  0.6343E-04
   ( 14, 35, 35)  ( 14, 32,  5)  ( 14, 37,  4)  ( 13, 34,  1)  ( 10,  2, 13)
  1  0.2505      0 -0.8505E-01  0  0.2852E-01  0  0.1790E-01  0  0.8056E-02
   (  7,  4,  7)  ( 12,  3, 13)  ( 14,  9, 32)  ( 13, 10, 27)  ( 13, 27, 10)
  0  0.5123E-02  0  0.2375E-02  0 -0.1384E-02  0  0.9735E-03  0  0.4975E-03
   (  9,  2,  2)  ( 14, 29, 29)  ( 14, 32, 32)  ( 14, 34, 34)  (  7,  2,  2)
  0  0.4141E-03  0 -0.1515E-03  0 -0.7134E-04  1 -0.1018E-01  0  0.7404E-02
   (  7,  2,  2)  ( 14, 21, 34)  ( 14, 22, 29)  (  6,  1,  4)  ( 14,  1,  4)
  0  0.1338E-02  0  0.8940E-03  0 -0.6112E-03  0 -0.4531E-03  0 -0.2330E-03
   ( 14, 34, 26)  ( 14,  3,  3)  ( 13,  2,  2)  ( 13,  2,  2)  ( 14, 34, 34)
  0  0.1564E-03  0  0.5606E-04  1 -0.1064E-02  0 -0.3928E-03  0  0.2971E-03
   ( 13,  2,  2)  ( 14,  3,  3)  (  6,  4,  1)  (  6,  1,  4)  ( 14,  4,  1)
  0 -0.8499E-04  1  0.5867E-04
   ( 14, 35, 35)  ( 14, 34, 34)

 MAXIMUM RESIDUAL FOR EACH ITERATION (1 INDICATES THE FIRST INNER ITERATION):

    RESIDUAL       RESIDUAL       RESIDUAL       RESIDUAL       RESIDUAL    
   LAYER,ROW,COL  LAYER,ROW,COL  LAYER,ROW,COL  LAYER,ROW,COL  LAYER,ROW,COL
 ---------------------------------------------------------------------------
  1   6.717      0  -2.190      0  -1.584      0 -0.6338      0  0.4898    
   ( 10,  2,  8)  ( 13,  2,  8)  ( 13,  2,  8)  ( 13,  6, 11)  (  9,  2,  8)
  0  0.2763      0  0.1755      0 -0.1039      0 -0.6363E-01  0  0.4053E-01
   ( 14,  4, 27)  ( 10,  6, 11)  ( 11,  4, 27)  ( 11,  4, 27)  ( 14,  2,  8)
  0  0.2590E-01  0 -0.1805E-01  0 -0.8219E-02  0 -0.6428E-02  0  0.2857E-02
   ( 14,  2, 13)  (  9,  2,  8)  ( 10,  2, 13)  ( 10,  2, 13)  ( 13,  6, 11)
  1  -26.08      0   3.535      0   1.812      0  0.8635      0 -0.5209    
   (  7,  4,  7)  (  8,  7,  4)  (  8,  7,  4)  (  8,  7,  4)  (  9,  7,  4)
  0 -0.4719      0 -0.3600      0 -0.2306      0 -0.1296      0 -0.8699E-01
   (  9,  7,  4)  (  9,  7,  4)  (  9,  7,  4)  (  9,  7,  4)  (  8,  4,  6)
  0 -0.6004E-01  0 -0.4229E-01  0 -0.3002E-01  1   3.303      0  0.8408    
   (  8,  4,  6)  (  8,  4,  6)  (  8,  4,  6)  (  6,  1,  4)  (  6,  1,  4)
  0 -0.5075      0 -0.3245      0 -0.2235      0 -0.1225      0  0.5327E-01
   (  6,  1,  5)  (  6,  1,  5)  (  8,  1,  4)  (  8,  1,  4)  (  8,  4,  7)
  0  0.3031E-01  0  0.2197E-01  1  0.3548      0  0.2039      0  0.6807E-01
   (  8,  4,  7)  (  8,  4,  7)  (  6,  1,  4)  (  6,  1,  4)  (  6,  1,  4)
  0  0.4694E-01  1  0.7366E-01
   (  6,  1,  4)  (  6,  4,  1)



 NO OUTPUT CONTROL FOR STRESS PERIOD    3   TIME STEP  14
 
 SOLVING FOR HEAD 

 CELL CONVERSIONS FOR ITER.=  2  LAYER=  7  STEP= 15  PERIOD=   3   (ROW,COL)
    WET(  2,  8)   WET(  8,  2)   

 CELL CONVERSIONS FOR ITER.=  2  LAYER=  8  STEP= 15  PERIOD=   3   (ROW,COL)
    WET(  1, 13)   WET(  2, 13)   WET(  3, 13)   WET( 13,  1)   WET( 13,  2)   
    WET( 13,  3)   

 CELL CONVERSIONS FOR ITER.=  2  LAYER=  9  STEP= 15  PERIOD=   3   (ROW,COL)
    WET(  1, 29)   WET(  2, 29)   WET(  3, 29)   WET(  4, 29)   WET(  5, 29)   
    WET(  6, 28)   WET(  6, 29)   WET(  7, 28)   WET(  7, 29)   WET(  8, 28)   
    WET(  9, 28)   WET( 10, 28)   WET( 11, 27)   WET( 12, 27)   WET( 13, 26)   
    WET( 13, 27)   WET( 14, 26)   WET( 15, 25)   WET( 15, 26)   WET( 16, 25)   
    WET( 17, 24)   WET( 17, 25)   WET( 18, 23)   WET( 18, 24)   WET( 19, 23)   
    WET( 20, 22)   WET( 20, 23)   WET( 21, 21)   WET( 21, 22)   WET( 22, 20)   
    WET( 22, 21)   WET( 23, 18)   WET( 23, 19)   WET( 23, 20)   WET( 24, 17)   
    WET( 24, 18)   WET( 25, 15)   WET( 25, 16)   WET( 25, 17)   WET( 26, 13)   
    WET( 26, 14)   WET( 26, 15)   WET( 27, 11)   WET( 27, 12)   WET( 27, 13)   
    WET( 28,  6)   WET( 28,  7)   WET( 28,  8)   WET( 28,  9)   WET( 28, 10)   
    WET( 29,  1)   WET( 29,  2)   WET( 29,  3)   WET( 29,  4)   WET( 29,  5)   
    WET( 29,  6)   WET( 29,  7)   
     5 CALLS TO PCG ROUTINE FOR TIME STEP  15 IN STRESS PERIOD    3
    42 TOTAL ITERATIONS

 MAXIMUM HEAD CHANGE FOR EACH ITERATION (1 INDICATES THE FIRST INNER ITERATION):

    HEAD CHANGE    HEAD CHANGE    HEAD CHANGE    HEAD CHANGE    HEAD CHANGE 
   LAYER,ROW,COL  LAYER,ROW,COL  LAYER,ROW,COL  LAYER,ROW,COL  LAYER,ROW,COL
 ---------------------------------------------------------------------------
  1  0.3324      0 -0.5394E-01  0 -0.1559E-01  0  0.1274E-01  0 -0.5387E-02
   (  7,  7,  4)  ( 12,  2,  5)  ( 14, 31,  9)  ( 13,  2,  5)  ( 14, 13, 30)
  0 -0.3511E-02  0 -0.3038E-02  0  0.1330E-02  0 -0.9682E-03  0 -0.4893E-03
   ( 14, 25, 31)  ( 14, 30, 30)  ( 13, 33, 33)  ( 14, 35, 35)  ( 14,  2,  4)
  0 -0.4551E-03  0 -0.2118E-03  0 -0.1321E-03  0 -0.8366E-04  1 -0.3309    
   ( 13,  5,  2)  ( 14,  3,  3)  ( 14,  4,  4)  ( 14, 31, 31)  ( 10,  6, 29)
  0 -0.1563      0  0.1057      0  0.4087E-01  0  0.1932E-01  0  0.1031E-01
   ( 14,  1, 34)  ( 14,  1, 33)  ( 14,  5, 33)  ( 14, 10, 32)  ( 14, 21, 33)
  0  0.5607E-02  0  0.3544E-02  0 -0.2187E-02  0 -0.8007E-03  0 -0.7436E-03
   ( 14, 25, 31)  ( 14, 30, 30)  ( 14, 32, 32)  ( 10, 21, 35)  ( 14, 34, 25)
  0  0.3423E-03  0  0.2161E-03  0  0.1336E-03  0 -0.6702E-04  1  0.6557E-02
   ( 14, 36, 27)  ( 14, 34, 19)  ( 14, 32, 22)  ( 11,  1, 35)  (  7,  2,  8)
  0  0.3096E-02  0 -0.8870E-03  0  0.6564E-03  0  0.2495E-03  0  0.1665E-03
   (  7,  2,  8)  ( 12,  2,  2)  ( 14,  1, 12)  (  8,  2,  2)  (  8,  2,  2)
  0 -0.1303E-03  0 -0.7195E-04  1 -0.2674E-03  0 -0.1100E-03  0 -0.1029E-03
   ( 14,  2,  2)  ( 13,  2,  2)  (  7,  7,  2)  ( 14, 33, 33)  (  7,  7,  2)
  0 -0.3994E-04  1  0.2452E-04
   ( 14, 21, 33)  ( 14, 32, 20)

 MAXIMUM RESIDUAL FOR EACH ITERATION (1 INDICATES THE FIRST INNER ITERATION):

    RESIDUAL       RESIDUAL       RESIDUAL       RESIDUAL       RESIDUAL    
   LAYER,ROW,COL  LAYER,ROW,COL  LAYER,ROW,COL  LAYER,ROW,COL  LAYER,ROW,COL
 ---------------------------------------------------------------------------
  1   4.918      0   1.883      0  -1.051      0 -0.5777      0  0.4254    
   (  9,  4,  7)  ( 11, 12, 26)  ( 13,  2,  5)  ( 13,  7,  4)  (  8,  2,  5)
  0 -0.2489      0  0.1597      0 -0.7296E-01  0  0.4069E-01  0 -0.3546E-01
   ( 13, 12, 26)  (  9,  4,  7)  ( 11, 11, 26)  ( 13,  2,  5)  ( 10,  4,  7)
  0  0.2249E-01  0  0.1411E-01  0  0.9792E-02  0 -0.4637E-02  1  -22.81    
   ( 14,  6,  6)  ( 14,  7,  4)  ( 13,  4,  7)  ( 10,  4, 13)  (  8,  1, 13)
  0  -5.775      0  -2.916      0   1.298      0 -0.6639      0 -0.4658    
   (  8,  1, 13)  (  8,  1, 13)  (  9,  1, 13)  (  8,  1, 13)  (  9,  2,  8)
  0 -0.2414      0  0.1834      0  0.1206      0  0.8070E-01  0 -0.5498E-01
   ( 10,  3, 13)  ( 11,  5, 28)  ( 11, 17, 23)  ( 11, 17, 23)  (  9,  1, 12)
  0 -0.3812E-01  0 -0.2547E-01  0 -0.1713E-01  0 -0.1152E-01  1  -2.022    
   (  9, 12,  1)  (  9, 12,  1)  (  9, 12,  1)  (  9, 12,  1)  (  7,  2,  8)
  0 -0.5907      0 -0.3296      0 -0.1874      0 -0.1296      0  0.8293E-01
   (  7,  8,  2)  (  7,  8,  2)  (  7,  8,  2)  (  7,  8,  2)  (  8,  8,  2)
  0  0.4119E-01  0  0.2163E-01  1  0.1182      0  0.9122E-01  0  0.3276E-01
   (  8,  8,  2)  (  8,  8,  2)  (  7,  7,  2)  (  7,  7,  2)  (  7,  7,  2)
  0  0.1695E-01  1  0.1902E-01
   (  7,  7,  2)  (  7,  7,  2)



 NO OUTPUT CONTROL FOR STRESS PERIOD    3   TIME STEP  15
 
 SOLVING FOR HEAD 

 CELL CONVERSIONS FOR ITER.=  2  LAYER=  5  STEP= 16  PERIOD=   3   (ROW,COL)
    WET(  2,  3)   WET(  3,  2)   

 CELL CONVERSIONS FOR ITER.=  2  LAYER=  6  STEP= 16  PERIOD=   3   (ROW,COL)
    WET(  2,  5)   WET(  5,  2)   

 CELL CONVERSIONS FOR ITER.=  2  LAYER=  7  STEP= 16  PERIOD=   3   (ROW,COL)
    WET(  5,  7)   WET(  6,  6)   WET(  7,  5)   

 CELL CONVERSIONS FOR ITER.=  2  LAYER=  8  STEP= 16  PERIOD=   3   (ROW,COL)
    WET(  4, 13)   WET(  6, 12)   WET(  8, 11)   WET(  9, 10)   WET( 10,  9)   
    WET( 11,  8)   WET( 12,  6)   WET( 13,  4)   
     6 CALLS TO PCG ROUTINE FOR TIME STEP  16 IN STRESS PERIOD    3
    53 TOTAL ITERATIONS

 MAXIMUM HEAD CHANGE FOR EACH ITERATION (1 INDICATES THE FIRST INNER ITERATION):

    HEAD CHANGE    HEAD CHANGE    HEAD CHANGE    HEAD CHANGE    HEAD CHANGE 
   LAYER,ROW,COL  LAYER,ROW,COL  LAYER,ROW,COL  LAYER,ROW,COL  LAYER,ROW,COL
 ---------------------------------------------------------------------------
  1  0.2977      0  0.1072      0 -0.5819E-01  0 -0.2207E-01  0 -0.1063E-01
   (  8,  1, 13)  ( 14,  1, 33)  ( 14, 33,  1)  ( 14, 33,  5)  ( 14, 32, 10)
  0 -0.4766E-02  0 -0.2376E-02  0 -0.1331E-02  0  0.1409E-02  0 -0.6997E-03
   ( 14, 32, 19)  ( 14, 36, 14)  ( 14, 35, 21)  ( 10, 29, 29)  ( 14, 34, 34)
  0  0.4045E-03  0 -0.2432E-03  0 -0.1527E-03  0 -0.1191E-03  0  0.5337E-04
   ( 14, 34, 34)  ( 14, 26, 36)  ( 14, 27, 32)  ( 14, 29, 29)  ( 11,  1, 35)
  1 -0.3414      0  0.1834      0  0.4096E-01  0  0.1457E-01  0  0.5522E-02
   (  5,  2,  2)  ( 12,  2,  2)  ( 14,  1,  3)  (  5,  2,  2)  (  5,  2,  2)
  0  0.3618E-02  0  0.8971E-03  0  0.1255E-02  0  0.4240E-03  0  0.3286E-03
   ( 10,  5,  2)  ( 14, 30, 34)  ( 14,  6,  1)  ( 14, 36, 28)  ( 14,  4,  7)
  0  0.1341E-03  0  0.1584E-03  0  0.8348E-04  1 -0.3532E-01  0  0.2076E-01
   ( 14, 32, 23)  ( 12,  4,  4)  ( 14,  2,  2)  (  5,  2,  2)  ( 13,  2,  2)
  0 -0.6918E-02  0  0.1610E-02  0  0.2605E-02  0 -0.9209E-03  0  0.3979E-03
   (  5,  2,  2)  (  7,  2,  2)  (  7,  2,  2)  ( 14,  2,  2)  ( 14, 28, 28)
  0 -0.1602E-03  0 -0.1411E-03  0  0.7639E-04  1 -0.7275E-02  0  0.3115E-02
   ( 14,  2,  1)  ( 14,  4,  1)  ( 14,  1,  1)  (  5,  2,  2)  ( 13,  2,  2)
  0  0.7398E-03  0  0.7923E-03  0  0.3102E-03  0  0.4739E-03  0 -0.1012E-03
   ( 14, 31, 31)  ( 14,  1,  3)  ( 14,  2,  1)  (  7,  2,  2)  ( 14, 31, 22)
  0 -0.1171E-03  0 -0.4228E-04  1 -0.1280E-02  0  0.5724E-03  0 -0.1117E-03
   (  7,  1,  1)  (  7,  1,  1)  (  5,  2,  2)  ( 13,  2,  2)  (  5,  2,  2)
  0  0.1442E-03  0  0.5732E-04  1 -0.8596E-04
   ( 14,  3,  1)  ( 14,  2,  1)  (  5,  2,  2)

 MAXIMUM RESIDUAL FOR EACH ITERATION (1 INDICATES THE FIRST INNER ITERATION):

    RESIDUAL       RESIDUAL       RESIDUAL       RESIDUAL       RESIDUAL    
   LAYER,ROW,COL  LAYER,ROW,COL  LAYER,ROW,COL  LAYER,ROW,COL  LAYER,ROW,COL
 ---------------------------------------------------------------------------
  1   4.087      0  -1.545      0  -1.119      0  0.4707      0  0.3372    
   ( 10,  6, 28)  ( 13,  5, 13)  ( 13,  5, 13)  ( 14,  2, 12)  ( 10,  5, 13)
  0  0.1954      0 -0.1299      0 -0.7939E-01  0  0.5001E-01  0  0.3159E-01
   ( 14, 28,  5)  (  9,  1, 14)  ( 11,  5, 28)  ( 14,  2, 12)  ( 14, 22, 19)
  0  0.1910E-01  0  0.1101E-01  0  0.6560E-02  0 -0.4475E-02  0 -0.3271E-02
   ( 14, 19, 22)  ( 14, 16, 24)  ( 14, 20, 21)  (  9,  2,  8)  ( 10,  2, 13)
  1  -20.14      0   4.476      0  -2.060      0  -1.126      0 -0.7347    
   (  8,  6, 12)  ( 13,  2,  2)  (  6,  2,  2)  (  6,  2,  2)  (  6,  2,  2)
  0 -0.4765      0 -0.3664      0 -0.2186      0 -0.1526      0 -0.9133E-01
   (  6,  2,  2)  (  6,  2,  2)  (  9,  9,  9)  (  9,  9,  9)  (  9,  9,  9)
  0 -0.6314E-01  0 -0.3968E-01  0 -0.2526E-01  1   11.08      0   3.549    
   (  9,  9,  9)  (  9,  9,  9)  (  9,  9,  9)  (  5,  2,  2)  (  5,  2,  2)
  0  -1.607      0  -1.123      0 -0.4337      0 -0.1862      0 -0.1195    
   (  7,  2,  2)  (  7,  2,  2)  (  7,  2,  2)  (  5,  2,  3)  (  5,  2,  3)
  0  0.8412E-01  0  0.5603E-01  0  0.3261E-01  1   2.286      0  0.8533    
   (  9,  2,  2)  (  9,  2,  2)  (  8,  2,  2)  (  5,  2,  2)  (  5,  2,  2)
  0  0.5572      0  0.3175      0 -0.1955      0 -0.6407E-01  0 -0.3738E-01
   (  5,  2,  2)  (  5,  2,  2)  (  7,  2,  2)  (  5,  3,  2)  (  5,  3,  2)
  0  0.2380E-01  0  0.1837E-01  1  0.4071      0  0.1463      0  0.9495E-01
   (  6,  3,  2)  (  6,  3,  2)  (  5,  2,  2)  (  5,  2,  2)  (  5,  2,  2)
  0  0.5269E-01  0 -0.2974E-01  1  0.1092    
   (  5,  2,  2)  (  7,  2,  2)  (  5,  2,  2)



 NO OUTPUT CONTROL FOR STRESS PERIOD    3   TIME STEP  16
 
 SOLVING FOR HEAD 

 CELL CONVERSIONS FOR ITER.=  2  LAYER=  7  STEP= 17  PERIOD=   3   (ROW,COL)
    WET(  3,  8)   WET(  8,  3)   

 CELL CONVERSIONS FOR ITER.=  2  LAYER=  8  STEP= 17  PERIOD=   3   (ROW,COL)
    WET(  5, 13)   WET(  7, 12)   WET( 12,  7)   WET( 13,  5)   

 CELL CONVERSIONS FOR ITER.=  2  LAYER=  9  STEP= 17  PERIOD=   3   (ROW,COL)
    WET(  1, 30)   WET(  2, 30)   WET(  3, 30)   WET(  4, 30)   WET(  5, 30)   
    WET(  8, 29)   WET(  9, 29)   WET( 10, 29)   WET( 11, 28)   WET( 12, 28)   
    WET( 14, 27)   WET( 15, 27)   WET( 16, 26)   WET( 18, 25)   WET( 19, 24)   
    WET( 24, 19)   WET( 25, 18)   WET( 26, 16)   WET( 27, 14)   WET( 27, 15)   
    WET( 28, 11)   WET( 28, 12)   WET( 29,  8)   WET( 29,  9)   WET( 29, 10)   
    WET( 30,  1)   WET( 30,  2)   WET( 30,  3)   WET( 30,  4)   WET( 30,  5)   
     5 CALLS TO PCG ROUTINE FOR TIME STEP  17 IN STRESS PERIOD    3
    41 TOTAL ITERATIONS

 MAXIMUM HEAD CHANGE FOR EACH ITERATION (1 INDICATES THE FIRST INNER ITERATION):

    HEAD CHANGE    HEAD CHANGE    HEAD CHANGE    HEAD CHANGE    HEAD CHANGE 
   LAYER,ROW,COL  LAYER,ROW,COL  LAYER,ROW,COL  LAYER,ROW,COL  LAYER,ROW,COL
 ---------------------------------------------------------------------------
  1  0.3272      0 -0.6437E-01  0 -0.2798E-01  0 -0.1053E-01  0 -0.5675E-02
   (  8, 12,  6)  ( 13, 13,  6)  ( 14, 35,  1)  ( 14,  5, 34)  ( 14, 33,  9)
  0 -0.2852E-02  0 -0.1985E-02  0  0.9625E-03  0  0.7817E-03  0  0.4463E-03
   ( 11,  2, 14)  ( 14, 31, 31)  ( 10, 23, 34)  ( 11, 33,  1)  ( 12,  1, 32)
  0  0.3781E-03  0 -0.1805E-03  0 -0.1378E-03  0  0.6964E-04  1  0.2763    
   ( 10, 21, 34)  ( 14,  5,  5)  ( 14, 25, 34)  ( 14, 36, 27)  (  7,  3,  8)
  0  0.1551      0  0.6335E-01  0  0.2838E-01  0  0.1215E-01  0  0.6050E-02
   ( 13,  2,  2)  ( 14,  1, 35)  ( 14, 32,  1)  ( 14, 33,  6)  ( 14, 36,  3)
  0  0.4450E-02  0  0.1640E-02  0  0.1020E-02  0 -0.8053E-03  0  0.3983E-03
   ( 14, 26, 26)  ( 14, 13, 37)  ( 14, 16, 35)  ( 14, 24, 32)  ( 14, 24, 32)
  0  0.2469E-03  0  0.1907E-03  0  0.8416E-04  1  0.9344E-02  0  0.4538E-02
   ( 14, 15, 34)  ( 14, 36, 28)  ( 14, 34, 31)  (  7,  3,  8)  (  7,  3,  8)
  0 -0.1306E-02  0 -0.9435E-03  0 -0.4200E-03  0 -0.2139E-03  0 -0.1783E-03
   ( 13,  2,  2)  ( 13,  2,  2)  ( 13,  1,  3)  ( 14, 31, 23)  ( 13,  2,  2)
  0  0.6957E-04  1 -0.3408E-03  0 -0.1216E-03  0  0.1933E-03  0  0.4913E-04
   ( 14,  1,  3)  (  7,  3,  7)  (  7,  3,  7)  ( 13,  2,  2)  ( 14, 30, 30)
  1 -0.6798E-04
   ( 13,  2,  2)

 MAXIMUM RESIDUAL FOR EACH ITERATION (1 INDICATES THE FIRST INNER ITERATION):

    RESIDUAL       RESIDUAL       RESIDUAL       RESIDUAL       RESIDUAL    
   LAYER,ROW,COL  LAYER,ROW,COL  LAYER,ROW,COL  LAYER,ROW,COL  LAYER,ROW,COL
 ---------------------------------------------------------------------------
  1   5.580      0   1.571      0 -0.7454      0  0.5708      0  0.4087    
   ( 10,  6, 12)  ( 10,  9, 10)  ( 13,  6, 13)  ( 14,  9,  9)  ( 14,  9,  9)
  0  0.1933      0  0.1211      0  0.5616E-01  0 -0.4064E-01  0  0.2600E-01
   ( 14,  9,  9)  ( 14,  7, 12)  (  9,  6, 12)  ( 13,  2,  2)  (  8,  2,  2)
  0  0.1615E-01  0 -0.1360E-01  0 -0.7427E-02  0 -0.4556E-02  1  -26.95    
   ( 13,  2,  5)  ( 10, 10,  9)  ( 10, 10,  9)  ( 13,  9,  9)  (  7,  3,  8)
  0   6.294      0   3.801      0  -1.319      0  -1.151      0 -0.5940    
   (  8,  3,  8)  ( 13,  2,  2)  (  7,  2,  2)  (  7,  2,  2)  (  9,  3,  8)
  0 -0.4430      0 -0.2405      0  0.1352      0 -0.8280E-01  0 -0.5890E-01
   (  9,  3,  8)  (  9,  3,  8)  ( 11, 10, 28)  (  8,  3,  7)  (  8,  3,  7)
  0 -0.4092E-01  0 -0.2708E-01  0 -0.1747E-01  1  -2.871      0 -0.7943    
   (  9,  3,  8)  (  8,  3,  7)  (  8,  3,  7)  (  7,  3,  8)  (  7,  3,  8)
  0 -0.4664      0 -0.2924      0 -0.1824      0  0.1006      0  0.5090E-01
   (  7,  3,  8)  (  7,  3,  8)  (  7,  3,  8)  (  8,  3,  8)  (  8,  3,  8)
  0  0.3098E-01  1  0.1368      0  0.1036      0  0.4043E-01  0  0.2521E-01
   (  8,  3,  8)  (  7,  3,  7)  (  7,  7,  3)  (  7,  7,  3)  (  7,  7,  3)
  1  0.4274E-01
   (  5,  2,  2)



 OUTPUT CONTROL FOR STRESS PERIOD    3   TIME STEP  17
    SAVE BUDGET
    PRINT HEAD FOR ALL LAYERS
    PRINT BUDGET
 UBDSV1 SAVING "         STORAGE" ON UNIT  32 AT TIME STEP 17, STRESS PERIOD   3
 UBDSV2 SAVING "   CONSTANT HEAD" ON UNIT  32 AT TIME STEP 17, STRESS PERIOD   3
 UBDSV1 SAVING "FLOW RIGHT FACE " ON UNIT  32 AT TIME STEP 17, STRESS PERIOD   3
 UBDSV1 SAVING "FLOW FRONT FACE " ON UNIT  32 AT TIME STEP 17, STRESS PERIOD   3
 UBDSV1 SAVING "FLOW LOWER FACE " ON UNIT  32 AT TIME STEP 17, STRESS PERIOD   3
 UBDSV3 SAVING "        RECHARGE" ON UNIT  32 AT TIME STEP 17, STRESS PERIOD   3
1
              HEAD IN LAYER   1 AT END OF TIME STEP  17 IN STRESS PERIOD    3
  ---------------------------------------------------------------------------

            1           2           3           4           5           6           7           8           9          10
           11          12          13          14          15          16          17          18          19          20
           21          22          23          24          25          26          27          28          29          30
           31          32          33          34          35          36          37          38          39          40
 ........................................................................................................................
   1   -99.90      -99.90      -99.90      -99.90      -99.90      -99.90      -99.90      -99.90      -99.90      -99.90    
       -99.90      -99.90      -99.90      -99.90      -99.90      -99.90      -99.90      -99.90      -99.90      -99.90    
       -99.90      -99.90      -99.90      -99.90      -99.90      -99.90      -99.90      -99.90      -99.90      -99.90    
       -99.90      -99.90      -99.90      -99.90      -99.90      -99.90      -99.90      -99.90      -99.90      -99.90    
   2   -99.90      -99.90      -99.90      -99.90      -99.90      -99.90      -99.90      -99.90      -99.90      -99.90    
       -99.90      -99.90      -99.90      -99.90      -99.90      -99.90      -99.90      -99.90      -99.90      -99.90    
       -99.90      -99.90      -99.90      -99.90      -99.90      -99.90      -99.90      -99.90      -99.90      -99.90    
       -99.90      -99.90      -99.90      -99.90      -99.90      -99.90      -99.90      -99.90      -99.90      -99.90    
   3   -99.90      -99.90      -99.90      -99.90      -99.90      -99.90      -99.90      -99.90      -99.90      -99.90    
       -99.90      -99.90      -99.90      -99.90      -99.90      -99.90      -99.90      -99.90      -99.90      -99.90    
       -99.90      -99.90      -99.90      -99.90      -99.90      -99.90      -99.90      -99.90      -99.90      -99.90    
       -99.90      -99.90      -99.90      -99.90      -99.90      -99.90      -99.90      -99.90      -99.90      -99.90    
   4   -99.90      -99.90      -99.90      -99.90      -99.90      -99.90      -99.90      -99.90      -99.90      -99.90    
       -99.90      -99.90      -99.90      -99.90      -99.90      -99.90      -99.90      -99.90      -99.90      -99.90    
       -99.90      -99.90      -99.90      -99.90      -99.90      -99.90      -99.90      -99.90      -99.90      -99.90    
       -99.90      -99.90      -99.90      -99.90      -99.90      -99.90      -99.90      -99.90      -99.90      -99.90    
   5   -99.90      -99.90      -99.90      -99.90      -99.90      -99.90      -99.90      -99.90      -99.90      -99.90    
       -99.90      -99.90      -99.90      -99.90      -99.90      -99.90      -99.90      -99.90      -99.90      -99.90    
       -99.90      -99.90      -99.90      -99.90      -99.90      -99.90      -99.90      -99.90      -99.90      -99.90    
       -99.90      -99.90      -99.90      -99.90      -99.90      -99.90      -99.90      -99.90      -99.90      -99.90    
   6   -99.90      -99.90      -99.90      -99.90      -99.90      -99.90      -99.90      -99.90      -99.90      -99.90    
       -99.90      -99.90      -99.90      -99.90      -99.90      -99.90      -99.90      -99.90      -99.90      -99.90    
       -99.90      -99.90      -99.90      -99.90      -99.90      -99.90      -99.90      -99.90      -99.90      -99.90    
       -99.90      -99.90      -99.90      -99.90      -99.90      -99.90      -99.90      -99.90      -99.90      -99.90    
   7   -99.90      -99.90      -99.90      -99.90      -99.90      -99.90      -99.90      -99.90      -99.90      -99.90    
       -99.90      -99.90      -99.90      -99.90      -99.90      -99.90      -99.90      -99.90      -99.90      -99.90    
       -99.90      -99.90      -99.90      -99.90      -99.90      -99.90      -99.90      -99.90      -99.90      -99.90    
       -99.90      -99.90      -99.90      -99.90      -99.90      -99.90      -99.90      -99.90      -99.90      -99.90    
   8   -99.90      -99.90      -99.90      -99.90      -99.90      -99.90      -99.90      -99.90      -99.90      -99.90    
       -99.90      -99.90      -99.90      -99.90      -99.90      -99.90      -99.90      -99.90      -99.90      -99.90    
       -99.90      -99.90      -99.90      -99.90      -99.90      -99.90      -99.90      -99.90      -99.90      -99.90    
       -99.90      -99.90      -99.90      -99.90      -99.90      -99.90      -99.90      -99.90      -99.90      -99.90    
   9   -99.90      -99.90      -99.90      -99.90      -99.90      -99.90      -99.90      -99.90      -99.90      -99.90    
       -99.90      -99.90      -99.90      -99.90      -99.90      -99.90      -99.90      -99.90      -99.90      -99.90    
       -99.90      -99.90      -99.90      -99.90      -99.90      -99.90      -99.90      -99.90      -99.90      -99.90    
       -99.90      -99.90      -99.90      -99.90      -99.90      -99.90      -99.90      -99.90      -99.90      -99.90    
  10   -99.90      -99.90      -99.90      -99.90      -99.90      -99.90      -99.90      -99.90      -99.90      -99.90    
       -99.90      -99.90      -99.90      -99.90      -99.90      -99.90      -99.90      -99.90      -99.90      -99.90    
       -99.90      -99.90      -99.90      -99.90      -99.90      -99.90      -99.90      -99.90      -99.90      -99.90    
       -99.90      -99.90      -99.90      -99.90      -99.90      -99.90      -99.90      -99.90      -99.90      -99.90    
  11   -99.90      -99.90      -99.90      -99.90      -99.90      -99.90      -99.90      -99.90      -99.90      -99.90    
       -99.90      -99.90      -99.90      -99.90      -99.90      -99.90      -99.90      -99.90      -99.90      -99.90    
       -99.90      -99.90      -99.90      -99.90      -99.90      -99.90      -99.90      -99.90      -99.90      -99.90    
       -99.90      -99.90      -99.90      -99.90      -99.90      -99.90      -99.90      -99.90      -99.90      -99.90    
  12   -99.90      -99.90      -99.90      -99.90      -99.90      -99.90      -99.90      -99.90      -99.90      -99.90    
       -99.90      -99.90      -99.90      -99.90      -99.90      -99.90      -99.90      -99.90      -99.90      -99.90    
       -99.90      -99.90      -99.90      -99.90      -99.90      -99.90      -99.90      -99.90      -99.90      -99.90    
       -99.90      -99.90      -99.90      -99.90      -99.90      -99.90      -99.90      -99.90      -99.90      -99.90    
  13   -99.90      -99.90      -99.90      -99.90      -99.90      -99.90      -99.90      -99.90      -99.90      -99.90    
       -99.90      -99.90      -99.90      -99.90      -99.90      -99.90      -99.90      -99.90      -99.90      -99.90    
       -99.90      -99.90      -99.90      -99.90      -99.90      -99.90      -99.90      -99.90      -99.90      -99.90    
       -99.90      -99.90      -99.90      -99.90      -99.90      -99.90      -99.90      -99.90      -99.90      -99.90    
  14   -99.90      -99.90      -99.90      -99.90      -99.90      -99.90      -99.90      -99.90      -99.90      -99.90    
       -99.90      -99.90      -99.90      -99.90      -99.90      -99.90      -99.90      -99.90      -99.90      -99.90    
       -99.90      -99.90      -99.90      -99.90      -99.90      -99.90      -99.90      -99.90      -99.90      -99.90    
       -99.90      -99.90      -99.90      -99.90      -99.90      -99.90      -99.90      -99.90      -99.90      -99.90    
  15   -99.90      -99.90      -99.90      -99.90      -99.90      -99.90      -99.90      -99.90      -99.90      -99.90    
       -99.90      -99.90      -99.90      -99.90      -99.90      -99.90      -99.90      -99.90      -99.90      -99.90    
       -99.90      -99.90      -99.90      -99.90      -99.90      -99.90      -99.90      -99.90      -99.90      -99.90    
       -99.90      -99.90      -99.90      -99.90      -99.90      -99.90      -99.90      -99.90      -99.90      -99.90    
  16   -99.90      -99.90      -99.90      -99.90      -99.90      -99.90      -99.90      -99.90      -99.90      -99.90    
       -99.90      -99.90      -99.90      -99.90      -99.90      -99.90      -99.90      -99.90      -99.90      -99.90    
       -99.90      -99.90      -99.90      -99.90      -99.90      -99.90      -99.90      -99.90      -99.90      -99.90    
       -99.90      -99.90      -99.90      -99.90      -99.90      -99.90      -99.90      -99.90      -99.90      -99.90    
  17   -99.90      -99.90      -99.90      -99.90      -99.90      -99.90      -99.90      -99.90      -99.90      -99.90    
       -99.90      -99.90      -99.90      -99.90      -99.90      -99.90      -99.90      -99.90      -99.90      -99.90    
       -99.90      -99.90      -99.90      -99.90      -99.90      -99.90      -99.90      -99.90      -99.90      -99.90    
       -99.90      -99.90      -99.90      -99.90      -99.90      -99.90      -99.90      -99.90      -99.90      -99.90    
  18   -99.90      -99.90      -99.90      -99.90      -99.90      -99.90      -99.90      -99.90      -99.90      -99.90    
       -99.90      -99.90      -99.90      -99.90      -99.90      -99.90      -99.90      -99.90      -99.90      -99.90    
       -99.90      -99.90      -99.90      -99.90      -99.90      -99.90      -99.90      -99.90      -99.90      -99.90    
       -99.90      -99.90      -99.90      -99.90      -99.90      -99.90      -99.90      -99.90      -99.90      -99.90    
  19   -99.90      -99.90      -99.90      -99.90      -99.90      -99.90      -99.90      -99.90      -99.90      -99.90    
       -99.90      -99.90      -99.90      -99.90      -99.90      -99.90      -99.90      -99.90      -99.90      -99.90    
       -99.90      -99.90      -99.90      -99.90      -99.90      -99.90      -99.90      -99.90      -99.90      -99.90    
       -99.90      -99.90      -99.90      -99.90      -99.90      -99.90      -99.90      -99.90      -99.90      -99.90    
  20   -99.90      -99.90      -99.90      -99.90      -99.90      -99.90      -99.90      -99.90      -99.90      -99.90    
       -99.90      -99.90      -99.90      -99.90      -99.90      -99.90      -99.90      -99.90      -99.90      -99.90    
       -99.90      -99.90      -99.90      -99.90      -99.90      -99.90      -99.90      -99.90      -99.90      -99.90    
       -99.90      -99.90      -99.90      -99.90      -99.90      -99.90      -99.90      -99.90      -99.90      -99.90    
  21   -99.90      -99.90      -99.90      -99.90      -99.90      -99.90      -99.90      -99.90      -99.90      -99.90    
       -99.90      -99.90      -99.90      -99.90      -99.90      -99.90      -99.90      -99.90      -99.90      -99.90    
       -99.90      -99.90      -99.90      -99.90      -99.90      -99.90      -99.90      -99.90      -99.90      -99.90    
       -99.90      -99.90      -99.90      -99.90      -99.90      -99.90      -99.90      -99.90      -99.90      -99.90    
  22   -99.90      -99.90      -99.90      -99.90      -99.90      -99.90      -99.90      -99.90      -99.90      -99.90    
       -99.90      -99.90      -99.90      -99.90      -99.90      -99.90      -99.90      -99.90      -99.90      -99.90    
       -99.90      -99.90      -99.90      -99.90      -99.90      -99.90      -99.90      -99.90      -99.90      -99.90    
       -99.90      -99.90      -99.90      -99.90      -99.90      -99.90      -99.90      -99.90      -99.90      -99.90    
  23   -99.90      -99.90      -99.90      -99.90      -99.90      -99.90      -99.90      -99.90      -99.90      -99.90    
       -99.90      -99.90      -99.90      -99.90      -99.90      -99.90      -99.90      -99.90      -99.90      -99.90    
       -99.90      -99.90      -99.90      -99.90      -99.90      -99.90      -99.90      -99.90      -99.90      -99.90    
       -99.90      -99.90      -99.90      -99.90      -99.90      -99.90      -99.90      -99.90      -99.90      -99.90    
  24   -99.90      -99.90      -99.90      -99.90      -99.90      -99.90      -99.90      -99.90      -99.90      -99.90    
       -99.90      -99.90      -99.90      -99.90      -99.90      -99.90      -99.90      -99.90      -99.90      -99.90    
       -99.90      -99.90      -99.90      -99.90      -99.90      -99.90      -99.90      -99.90      -99.90      -99.90    
       -99.90      -99.90      -99.90      -99.90      -99.90      -99.90      -99.90      -99.90      -99.90      -99.90    
  25   -99.90      -99.90      -99.90      -99.90      -99.90      -99.90      -99.90      -99.90      -99.90      -99.90    
       -99.90      -99.90      -99.90      -99.90      -99.90      -99.90      -99.90      -99.90      -99.90      -99.90    
       -99.90      -99.90      -99.90      -99.90      -99.90      -99.90      -99.90      -99.90      -99.90      -99.90    
       -99.90      -99.90      -99.90      -99.90      -99.90      -99.90      -99.90      -99.90      -99.90      -99.90    
  26   -99.90      -99.90      -99.90      -99.90      -99.90      -99.90      -99.90      -99.90      -99.90      -99.90    
       -99.90      -99.90      -99.90      -99.90      -99.90      -99.90      -99.90      -99.90      -99.90      -99.90    
       -99.90      -99.90      -99.90      -99.90      -99.90      -99.90      -99.90      -99.90      -99.90      -99.90    
       -99.90      -99.90      -99.90      -99.90      -99.90      -99.90      -99.90      -99.90      -99.90      -99.90    
  27   -99.90      -99.90      -99.90      -99.90      -99.90      -99.90      -99.90      -99.90      -99.90      -99.90    
       -99.90      -99.90      -99.90      -99.90      -99.90      -99.90      -99.90      -99.90      -99.90      -99.90    
       -99.90      -99.90      -99.90      -99.90      -99.90      -99.90      -99.90      -99.90      -99.90      -99.90    
       -99.90      -99.90      -99.90      -99.90      -99.90      -99.90      -99.90      -99.90      -99.90      -99.90    
  28   -99.90      -99.90      -99.90      -99.90      -99.90      -99.90      -99.90      -99.90      -99.90      -99.90    
       -99.90      -99.90      -99.90      -99.90      -99.90      -99.90      -99.90      -99.90      -99.90      -99.90    
       -99.90      -99.90      -99.90      -99.90      -99.90      -99.90      -99.90      -99.90      -99.90      -99.90    
       -99.90      -99.90      -99.90      -99.90      -99.90      -99.90      -99.90      -99.90      -99.90      -99.90    
  29   -99.90      -99.90      -99.90      -99.90      -99.90      -99.90      -99.90      -99.90      -99.90      -99.90    
       -99.90      -99.90      -99.90      -99.90      -99.90      -99.90      -99.90      -99.90      -99.90      -99.90    
       -99.90      -99.90      -99.90      -99.90      -99.90      -99.90      -99.90      -99.90      -99.90      -99.90    
       -99.90      -99.90      -99.90      -99.90      -99.90      -99.90      -99.90      -99.90      -99.90      -99.90    
  30   -99.90      -99.90      -99.90      -99.90      -99.90      -99.90      -99.90      -99.90      -99.90      -99.90    
       -99.90      -99.90      -99.90      -99.90      -99.90      -99.90      -99.90      -99.90      -99.90      -99.90    
       -99.90      -99.90      -99.90      -99.90      -99.90      -99.90      -99.90      -99.90      -99.90      -99.90    
       -99.90      -99.90      -99.90      -99.90      -99.90      -99.90      -99.90      -99.90      -99.90      -99.90    
  31   -99.90      -99.90      -99.90      -99.90      -99.90      -99.90      -99.90      -99.90      -99.90      -99.90    
       -99.90      -99.90      -99.90      -99.90      -99.90      -99.90      -99.90      -99.90      -99.90      -99.90    
       -99.90      -99.90      -99.90      -99.90      -99.90      -99.90      -99.90      -99.90      -99.90      -99.90    
       -99.90      -99.90      -99.90      -99.90      -99.90      -99.90      -99.90      -99.90      -99.90      -99.90    
  32   -99.90      -99.90      -99.90      -99.90      -99.90      -99.90      -99.90      -99.90      -99.90      -99.90    
       -99.90      -99.90      -99.90      -99.90      -99.90      -99.90      -99.90      -99.90      -99.90      -99.90    
       -99.90      -99.90      -99.90      -99.90      -99.90      -99.90      -99.90      -99.90      -99.90      -99.90    
       -99.90      -99.90      -99.90      -99.90      -99.90      -99.90      -99.90      -99.90      -99.90      -99.90    
  33   -99.90      -99.90      -99.90      -99.90      -99.90      -99.90      -99.90      -99.90      -99.90      -99.90    
       -99.90      -99.90      -99.90      -99.90      -99.90      -99.90      -99.90      -99.90      -99.90      -99.90    
       -99.90      -99.90      -99.90      -99.90      -99.90      -99.90      -99.90      -99.90      -99.90      -99.90    
       -99.90      -99.90      -99.90      -99.90      -99.90      -99.90      -99.90      -99.90      -99.90      -99.90    
  34   -99.90      -99.90      -99.90      -99.90      -99.90      -99.90      -99.90      -99.90      -99.90      -99.90    
       -99.90      -99.90      -99.90      -99.90      -99.90      -99.90      -99.90      -99.90      -99.90      -99.90    
       -99.90      -99.90      -99.90      -99.90      -99.90      -99.90      -99.90      -99.90      -99.90      -99.90    
       -99.90      -99.90      -99.90      -99.90      -99.90      -99.90      -99.90      -99.90      -99.90      -99.90    
  35   -99.90      -99.90      -99.90      -99.90      -99.90      -99.90      -99.90      -99.90      -99.90      -99.90    
       -99.90      -99.90      -99.90      -99.90      -99.90      -99.90      -99.90      -99.90      -99.90      -99.90    
       -99.90      -99.90      -99.90      -99.90      -99.90      -99.90      -99.90      -99.90      -99.90      -99.90    
       -99.90      -99.90      -99.90      -99.90      -99.90      -99.90      -99.90      -99.90      -99.90      -99.90    
  36   -99.90      -99.90      -99.90      -99.90      -99.90      -99.90      -99.90      -99.90      -99.90      -99.90    
       -99.90      -99.90      -99.90      -99.90      -99.90      -99.90      -99.90      -99.90      -99.90      -99.90    
       -99.90      -99.90      -99.90      -99.90      -99.90      -99.90      -99.90      -99.90      -99.90      -99.90    
       -99.90      -99.90      -99.90      -99.90      -99.90      -99.90      -99.90      -99.90      -99.90      -99.90    
  37   -99.90      -99.90      -99.90      -99.90      -99.90      -99.90      -99.90      -99.90      -99.90      -99.90    
       -99.90      -99.90      -99.90      -99.90      -99.90      -99.90      -99.90      -99.90      -99.90      -99.90    
       -99.90      -99.90      -99.90      -99.90      -99.90      -99.90      -99.90      -99.90      -99.90      -99.90    
       -99.90      -99.90      -99.90      -99.90      -99.90      -99.90      -99.90      -99.90      -99.90      -99.90    
  38   -99.90      -99.90      -99.90      -99.90      -99.90      -99.90      -99.90      -99.90      -99.90      -99.90    
       -99.90      -99.90      -99.90      -99.90      -99.90      -99.90      -99.90      -99.90      -99.90      -99.90    
       -99.90      -99.90      -99.90      -99.90      -99.90      -99.90      -99.90      -99.90      -99.90      -99.90    
       -99.90      -99.90      -99.90      -99.90      -99.90      -99.90      -99.90      -99.90      -99.90      -99.90    
  39   -99.90      -99.90      -99.90      -99.90      -99.90      -99.90      -99.90      -99.90      -99.90      -99.90    
       -99.90      -99.90      -99.90      -99.90      -99.90      -99.90      -99.90      -99.90      -99.90      -99.90    
       -99.90      -99.90      -99.90      -99.90      -99.90      -99.90      -99.90      -99.90      -99.90      -99.90    
       -99.90      -99.90      -99.90      -99.90      -99.90      -99.90      -99.90      -99.90      -99.90      -99.90    
  40   -99.90      -99.90      -99.90      -99.90      -99.90      -99.90      -99.90      -99.90      -99.90      -99.90    
       -99.90      -99.90      -99.90      -99.90      -99.90      -99.90      -99.90      -99.90      -99.90      -99.90    
       -99.90      -99.90      -99.90      -99.90      -99.90      -99.90      -99.90      -99.90      -99.90      -99.90    
       -99.90      -99.90      -99.90      -99.90      -99.90      -99.90      -99.90      -99.90      -99.90      -99.90    
1
              HEAD IN LAYER   2 AT END OF TIME STEP  17 IN STRESS PERIOD    3
  ---------------------------------------------------------------------------

            1           2           3           4           5           6           7           8           9          10
           11          12          13          14          15          16          17          18          19          20
           21          22          23          24          25          26          27          28          29          30
           31          32          33          34          35          36          37          38          39          40
 ........................................................................................................................
   1   -99.90      -99.90      -99.90      -99.90      -99.90      -99.90      -99.90      -99.90      -99.90      -99.90    
       -99.90      -99.90      -99.90      -99.90      -99.90      -99.90      -99.90      -99.90      -99.90      -99.90    
       -99.90      -99.90      -99.90      -99.90      -99.90      -99.90      -99.90      -99.90      -99.90      -99.90    
       -99.90      -99.90      -99.90      -99.90      -99.90      -99.90      -99.90      -99.90      -99.90      -99.90    
   2   -99.90      -99.90      -99.90      -99.90      -99.90      -99.90      -99.90      -99.90      -99.90      -99.90    
       -99.90      -99.90      -99.90      -99.90      -99.90      -99.90      -99.90      -99.90      -99.90      -99.90    
       -99.90      -99.90      -99.90      -99.90      -99.90      -99.90      -99.90      -99.90      -99.90      -99.90    
       -99.90      -99.90      -99.90      -99.90      -99.90      -99.90      -99.90      -99.90      -99.90      -99.90    
   3   -99.90      -99.90      -99.90      -99.90      -99.90      -99.90      -99.90      -99.90      -99.90      -99.90    
       -99.90      -99.90      -99.90      -99.90      -99.90      -99.90      -99.90      -99.90      -99.90      -99.90    
       -99.90      -99.90      -99.90      -99.90      -99.90      -99.90      -99.90      -99.90      -99.90      -99.90    
       -99.90      -99.90      -99.90      -99.90      -99.90      -99.90      -99.90      -99.90      -99.90      -99.90    
   4   -99.90      -99.90      -99.90      -99.90      -99.90      -99.90      -99.90      -99.90      -99.90      -99.90    
       -99.90      -99.90      -99.90      -99.90      -99.90      -99.90      -99.90      -99.90      -99.90      -99.90    
       -99.90      -99.90      -99.90      -99.90      -99.90      -99.90      -99.90      -99.90      -99.90      -99.90    
       -99.90      -99.90      -99.90      -99.90      -99.90      -99.90      -99.90      -99.90      -99.90      -99.90    
   5   -99.90      -99.90      -99.90      -99.90      -99.90      -99.90      -99.90      -99.90      -99.90      -99.90    
       -99.90      -99.90      -99.90      -99.90      -99.90      -99.90      -99.90      -99.90      -99.90      -99.90    
       -99.90      -99.90      -99.90      -99.90      -99.90      -99.90      -99.90      -99.90      -99.90      -99.90    
       -99.90      -99.90      -99.90      -99.90      -99.90      -99.90      -99.90      -99.90      -99.90      -99.90    
   6   -99.90      -99.90      -99.90      -99.90      -99.90      -99.90      -99.90      -99.90      -99.90      -99.90    
       -99.90      -99.90      -99.90      -99.90      -99.90      -99.90      -99.90      -99.90      -99.90      -99.90    
       -99.90      -99.90      -99.90      -99.90      -99.90      -99.90      -99.90      -99.90      -99.90      -99.90    
       -99.90      -99.90      -99.90      -99.90      -99.90      -99.90      -99.90      -99.90      -99.90      -99.90    
   7   -99.90      -99.90      -99.90      -99.90      -99.90      -99.90      -99.90      -99.90      -99.90      -99.90    
       -99.90      -99.90      -99.90      -99.90      -99.90      -99.90      -99.90      -99.90      -99.90      -99.90    
       -99.90      -99.90      -99.90      -99.90      -99.90      -99.90      -99.90      -99.90      -99.90      -99.90    
       -99.90      -99.90      -99.90      -99.90      -99.90      -99.90      -99.90      -99.90      -99.90      -99.90    
   8   -99.90      -99.90      -99.90      -99.90      -99.90      -99.90      -99.90      -99.90      -99.90      -99.90    
       -99.90      -99.90      -99.90      -99.90      -99.90      -99.90      -99.90      -99.90      -99.90      -99.90    
       -99.90      -99.90      -99.90      -99.90      -99.90      -99.90      -99.90      -99.90      -99.90      -99.90    
       -99.90      -99.90      -99.90      -99.90      -99.90      -99.90      -99.90      -99.90      -99.90      -99.90    
   9   -99.90      -99.90      -99.90      -99.90      -99.90      -99.90      -99.90      -99.90      -99.90      -99.90    
       -99.90      -99.90      -99.90      -99.90      -99.90      -99.90      -99.90      -99.90      -99.90      -99.90    
       -99.90      -99.90      -99.90      -99.90      -99.90      -99.90      -99.90      -99.90      -99.90      -99.90    
       -99.90      -99.90      -99.90      -99.90      -99.90      -99.90      -99.90      -99.90      -99.90      -99.90    
  10   -99.90      -99.90      -99.90      -99.90      -99.90      -99.90      -99.90      -99.90      -99.90      -99.90    
       -99.90      -99.90      -99.90      -99.90      -99.90      -99.90      -99.90      -99.90      -99.90      -99.90    
       -99.90      -99.90      -99.90      -99.90      -99.90      -99.90      -99.90      -99.90      -99.90      -99.90    
       -99.90      -99.90      -99.90      -99.90      -99.90      -99.90      -99.90      -99.90      -99.90      -99.90    
  11   -99.90      -99.90      -99.90      -99.90      -99.90      -99.90      -99.90      -99.90      -99.90      -99.90    
       -99.90      -99.90      -99.90      -99.90      -99.90      -99.90      -99.90      -99.90      -99.90      -99.90    
       -99.90      -99.90      -99.90      -99.90      -99.90      -99.90      -99.90      -99.90      -99.90      -99.90    
       -99.90      -99.90      -99.90      -99.90      -99.90      -99.90      -99.90      -99.90      -99.90      -99.90    
  12   -99.90      -99.90      -99.90      -99.90      -99.90      -99.90      -99.90      -99.90      -99.90      -99.90    
       -99.90      -99.90      -99.90      -99.90      -99.90      -99.90      -99.90      -99.90      -99.90      -99.90    
       -99.90      -99.90      -99.90      -99.90      -99.90      -99.90      -99.90      -99.90      -99.90      -99.90    
       -99.90      -99.90      -99.90      -99.90      -99.90      -99.90      -99.90      -99.90      -99.90      -99.90    
  13   -99.90      -99.90      -99.90      -99.90      -99.90      -99.90      -99.90      -99.90      -99.90      -99.90    
       -99.90      -99.90      -99.90      -99.90      -99.90      -99.90      -99.90      -99.90      -99.90      -99.90    
       -99.90      -99.90      -99.90      -99.90      -99.90      -99.90      -99.90      -99.90      -99.90      -99.90    
       -99.90      -99.90      -99.90      -99.90      -99.90      -99.90      -99.90      -99.90      -99.90      -99.90    
  14   -99.90      -99.90      -99.90      -99.90      -99.90      -99.90      -99.90      -99.90      -99.90      -99.90    
       -99.90      -99.90      -99.90      -99.90      -99.90      -99.90      -99.90      -99.90      -99.90      -99.90    
       -99.90      -99.90      -99.90      -99.90      -99.90      -99.90      -99.90      -99.90      -99.90      -99.90    
       -99.90      -99.90      -99.90      -99.90      -99.90      -99.90      -99.90      -99.90      -99.90      -99.90    
  15   -99.90      -99.90      -99.90      -99.90      -99.90      -99.90      -99.90      -99.90      -99.90      -99.90    
       -99.90      -99.90      -99.90      -99.90      -99.90      -99.90      -99.90      -99.90      -99.90      -99.90    
       -99.90      -99.90      -99.90      -99.90      -99.90      -99.90      -99.90      -99.90      -99.90      -99.90    
       -99.90      -99.90      -99.90      -99.90      -99.90      -99.90      -99.90      -99.90      -99.90      -99.90    
  16   -99.90      -99.90      -99.90      -99.90      -99.90      -99.90      -99.90      -99.90      -99.90      -99.90    
       -99.90      -99.90      -99.90      -99.90      -99.90      -99.90      -99.90      -99.90      -99.90      -99.90    
       -99.90      -99.90      -99.90      -99.90      -99.90      -99.90      -99.90      -99.90      -99.90      -99.90    
       -99.90      -99.90      -99.90      -99.90      -99.90      -99.90      -99.90      -99.90      -99.90      -99.90    
  17   -99.90      -99.90      -99.90      -99.90      -99.90      -99.90      -99.90      -99.90      -99.90      -99.90    
       -99.90      -99.90      -99.90      -99.90      -99.90      -99.90      -99.90      -99.90      -99.90      -99.90    
       -99.90      -99.90      -99.90      -99.90      -99.90      -99.90      -99.90      -99.90      -99.90      -99.90    
       -99.90      -99.90      -99.90      -99.90      -99.90      -99.90      -99.90      -99.90      -99.90      -99.90    
  18   -99.90      -99.90      -99.90      -99.90      -99.90      -99.90      -99.90      -99.90      -99.90      -99.90    
       -99.90      -99.90      -99.90      -99.90      -99.90      -99.90      -99.90      -99.90      -99.90      -99.90    
       -99.90      -99.90      -99.90      -99.90      -99.90      -99.90      -99.90      -99.90      -99.90      -99.90    
       -99.90      -99.90      -99.90      -99.90      -99.90      -99.90      -99.90      -99.90      -99.90      -99.90    
  19   -99.90      -99.90      -99.90      -99.90      -99.90      -99.90      -99.90      -99.90      -99.90      -99.90    
       -99.90      -99.90      -99.90      -99.90      -99.90      -99.90      -99.90      -99.90      -99.90      -99.90    
       -99.90      -99.90      -99.90      -99.90      -99.90      -99.90      -99.90      -99.90      -99.90      -99.90    
       -99.90      -99.90      -99.90      -99.90      -99.90      -99.90      -99.90      -99.90      -99.90      -99.90    
  20   -99.90      -99.90      -99.90      -99.90      -99.90      -99.90      -99.90      -99.90      -99.90      -99.90    
       -99.90      -99.90      -99.90      -99.90      -99.90      -99.90      -99.90      -99.90      -99.90      -99.90    
       -99.90      -99.90      -99.90      -99.90      -99.90      -99.90      -99.90      -99.90      -99.90      -99.90    
       -99.90      -99.90      -99.90      -99.90      -99.90      -99.90      -99.90      -99.90      -99.90      -99.90    
  21   -99.90      -99.90      -99.90      -99.90      -99.90      -99.90      -99.90      -99.90      -99.90      -99.90    
       -99.90      -99.90      -99.90      -99.90      -99.90      -99.90      -99.90      -99.90      -99.90      -99.90    
       -99.90      -99.90      -99.90      -99.90      -99.90      -99.90      -99.90      -99.90      -99.90      -99.90    
       -99.90      -99.90      -99.90      -99.90      -99.90      -99.90      -99.90      -99.90      -99.90      -99.90    
  22   -99.90      -99.90      -99.90      -99.90      -99.90      -99.90      -99.90      -99.90      -99.90      -99.90    
       -99.90      -99.90      -99.90      -99.90      -99.90      -99.90      -99.90      -99.90      -99.90      -99.90    
       -99.90      -99.90      -99.90      -99.90      -99.90      -99.90      -99.90      -99.90      -99.90      -99.90    
       -99.90      -99.90      -99.90      -99.90      -99.90      -99.90      -99.90      -99.90      -99.90      -99.90    
  23   -99.90      -99.90      -99.90      -99.90      -99.90      -99.90      -99.90      -99.90      -99.90      -99.90    
       -99.90      -99.90      -99.90      -99.90      -99.90      -99.90      -99.90      -99.90      -99.90      -99.90    
       -99.90      -99.90      -99.90      -99.90      -99.90      -99.90      -99.90      -99.90      -99.90      -99.90    
       -99.90      -99.90      -99.90      -99.90      -99.90      -99.90      -99.90      -99.90      -99.90      -99.90    
  24   -99.90      -99.90      -99.90      -99.90      -99.90      -99.90      -99.90      -99.90      -99.90      -99.90    
       -99.90      -99.90      -99.90      -99.90      -99.90      -99.90      -99.90      -99.90      -99.90      -99.90    
       -99.90      -99.90      -99.90      -99.90      -99.90      -99.90      -99.90      -99.90      -99.90      -99.90    
       -99.90      -99.90      -99.90      -99.90      -99.90      -99.90      -99.90      -99.90      -99.90      -99.90    
  25   -99.90      -99.90      -99.90      -99.90      -99.90      -99.90      -99.90      -99.90      -99.90      -99.90    
       -99.90      -99.90      -99.90      -99.90      -99.90      -99.90      -99.90      -99.90      -99.90      -99.90    
       -99.90      -99.90      -99.90      -99.90      -99.90      -99.90      -99.90      -99.90      -99.90      -99.90    
       -99.90      -99.90      -99.90      -99.90      -99.90      -99.90      -99.90      -99.90      -99.90      -99.90    
  26   -99.90      -99.90      -99.90      -99.90      -99.90      -99.90      -99.90      -99.90      -99.90      -99.90    
       -99.90      -99.90      -99.90      -99.90      -99.90      -99.90      -99.90      -99.90      -99.90      -99.90    
       -99.90      -99.90      -99.90      -99.90      -99.90      -99.90      -99.90      -99.90      -99.90      -99.90    
       -99.90      -99.90      -99.90      -99.90      -99.90      -99.90      -99.90      -99.90      -99.90      -99.90    
  27   -99.90      -99.90      -99.90      -99.90      -99.90      -99.90      -99.90      -99.90      -99.90      -99.90    
       -99.90      -99.90      -99.90      -99.90      -99.90      -99.90      -99.90      -99.90      -99.90      -99.90    
       -99.90      -99.90      -99.90      -99.90      -99.90      -99.90      -99.90      -99.90      -99.90      -99.90    
       -99.90      -99.90      -99.90      -99.90      -99.90      -99.90      -99.90      -99.90      -99.90      -99.90    
  28   -99.90      -99.90      -99.90      -99.90      -99.90      -99.90      -99.90      -99.90      -99.90      -99.90    
       -99.90      -99.90      -99.90      -99.90      -99.90      -99.90      -99.90      -99.90      -99.90      -99.90    
       -99.90      -99.90      -99.90      -99.90      -99.90      -99.90      -99.90      -99.90      -99.90      -99.90    
       -99.90      -99.90      -99.90      -99.90      -99.90      -99.90      -99.90      -99.90      -99.90      -99.90    
  29   -99.90      -99.90      -99.90      -99.90      -99.90      -99.90      -99.90      -99.90      -99.90      -99.90    
       -99.90      -99.90      -99.90      -99.90      -99.90      -99.90      -99.90      -99.90      -99.90      -99.90    
       -99.90      -99.90      -99.90      -99.90      -99.90      -99.90      -99.90      -99.90      -99.90      -99.90    
       -99.90      -99.90      -99.90      -99.90      -99.90      -99.90      -99.90      -99.90      -99.90      -99.90    
  30   -99.90      -99.90      -99.90      -99.90      -99.90      -99.90      -99.90      -99.90      -99.90      -99.90    
       -99.90      -99.90      -99.90      -99.90      -99.90      -99.90      -99.90      -99.90      -99.90      -99.90    
       -99.90      -99.90      -99.90      -99.90      -99.90      -99.90      -99.90      -99.90      -99.90      -99.90    
       -99.90      -99.90      -99.90      -99.90      -99.90      -99.90      -99.90      -99.90      -99.90      -99.90    
  31   -99.90      -99.90      -99.90      -99.90      -99.90      -99.90      -99.90      -99.90      -99.90      -99.90    
       -99.90      -99.90      -99.90      -99.90      -99.90      -99.90      -99.90      -99.90      -99.90      -99.90    
       -99.90      -99.90      -99.90      -99.90      -99.90      -99.90      -99.90      -99.90      -99.90      -99.90    
       -99.90      -99.90      -99.90      -99.90      -99.90      -99.90      -99.90      -99.90      -99.90      -99.90    
  32   -99.90      -99.90      -99.90      -99.90      -99.90      -99.90      -99.90      -99.90      -99.90      -99.90    
       -99.90      -99.90      -99.90      -99.90      -99.90      -99.90      -99.90      -99.90      -99.90      -99.90    
       -99.90      -99.90      -99.90      -99.90      -99.90      -99.90      -99.90      -99.90      -99.90      -99.90    
       -99.90      -99.90      -99.90      -99.90      -99.90      -99.90      -99.90      -99.90      -99.90      -99.90    
  33   -99.90      -99.90      -99.90      -99.90      -99.90      -99.90      -99.90      -99.90      -99.90      -99.90    
       -99.90      -99.90      -99.90      -99.90      -99.90      -99.90      -99.90      -99.90      -99.90      -99.90    
       -99.90      -99.90      -99.90      -99.90      -99.90      -99.90      -99.90      -99.90      -99.90      -99.90    
       -99.90      -99.90      -99.90      -99.90      -99.90      -99.90      -99.90      -99.90      -99.90      -99.90    
  34   -99.90      -99.90      -99.90      -99.90      -99.90      -99.90      -99.90      -99.90      -99.90      -99.90    
       -99.90      -99.90      -99.90      -99.90      -99.90      -99.90      -99.90      -99.90      -99.90      -99.90    
       -99.90      -99.90      -99.90      -99.90      -99.90      -99.90      -99.90      -99.90      -99.90      -99.90    
       -99.90      -99.90      -99.90      -99.90      -99.90      -99.90      -99.90      -99.90      -99.90      -99.90    
  35   -99.90      -99.90      -99.90      -99.90      -99.90      -99.90      -99.90      -99.90      -99.90      -99.90    
       -99.90      -99.90      -99.90      -99.90      -99.90      -99.90      -99.90      -99.90      -99.90      -99.90    
       -99.90      -99.90      -99.90      -99.90      -99.90      -99.90      -99.90      -99.90      -99.90      -99.90    
       -99.90      -99.90      -99.90      -99.90      -99.90      -99.90      -99.90      -99.90      -99.90      -99.90    
  36   -99.90      -99.90      -99.90      -99.90      -99.90      -99.90      -99.90      -99.90      -99.90      -99.90    
       -99.90      -99.90      -99.90      -99.90      -99.90      -99.90      -99.90      -99.90      -99.90      -99.90    
       -99.90      -99.90      -99.90      -99.90      -99.90      -99.90      -99.90      -99.90      -99.90      -99.90    
       -99.90      -99.90      -99.90      -99.90      -99.90      -99.90      -99.90      -99.90      -99.90      -99.90    
  37   -99.90      -99.90      -99.90      -99.90      -99.90      -99.90      -99.90      -99.90      -99.90      -99.90    
       -99.90      -99.90      -99.90      -99.90      -99.90      -99.90      -99.90      -99.90      -99.90      -99.90    
       -99.90      -99.90      -99.90      -99.90      -99.90      -99.90      -99.90      -99.90      -99.90      -99.90    
       -99.90      -99.90      -99.90      -99.90      -99.90      -99.90      -99.90      -99.90      -99.90      -99.90    
  38   -99.90      -99.90      -99.90      -99.90      -99.90      -99.90      -99.90      -99.90      -99.90      -99.90    
       -99.90      -99.90      -99.90      -99.90      -99.90      -99.90      -99.90      -99.90      -99.90      -99.90    
       -99.90      -99.90      -99.90      -99.90      -99.90      -99.90      -99.90      -99.90      -99.90      -99.90    
       -99.90      -99.90      -99.90      -99.90      -99.90      -99.90      -99.90      -99.90      -99.90      -99.90    
  39   -99.90      -99.90      -99.90      -99.90      -99.90      -99.90      -99.90      -99.90      -99.90      -99.90    
       -99.90      -99.90      -99.90      -99.90      -99.90      -99.90      -99.90      -99.90      -99.90      -99.90    
       -99.90      -99.90      -99.90      -99.90      -99.90      -99.90      -99.90      -99.90      -99.90      -99.90    
       -99.90      -99.90      -99.90      -99.90      -99.90      -99.90      -99.90      -99.90      -99.90      -99.90    
  40   -99.90      -99.90      -99.90      -99.90      -99.90      -99.90      -99.90      -99.90      -99.90      -99.90    
       -99.90      -99.90      -99.90      -99.90      -99.90      -99.90      -99.90      -99.90      -99.90      -99.90    
       -99.90      -99.90      -99.90      -99.90      -99.90      -99.90      -99.90      -99.90      -99.90      -99.90    
       -99.90      -99.90      -99.90      -99.90      -99.90      -99.90      -99.90      -99.90      -99.90      -99.90    
1
              HEAD IN LAYER   3 AT END OF TIME STEP  17 IN STRESS PERIOD    3
  ---------------------------------------------------------------------------

            1           2           3           4           5           6           7           8           9          10
           11          12          13          14          15          16          17          18          19          20
           21          22          23          24          25          26          27          28          29          30
           31          32          33          34          35          36          37          38          39          40
 ........................................................................................................................
   1   -99.90      -99.90      -99.90      -99.90      -99.90      -99.90      -99.90      -99.90      -99.90      -99.90    
       -99.90      -99.90      -99.90      -99.90      -99.90      -99.90      -99.90      -99.90      -99.90      -99.90    
       -99.90      -99.90      -99.90      -99.90      -99.90      -99.90      -99.90      -99.90      -99.90      -99.90    
       -99.90      -99.90      -99.90      -99.90      -99.90      -99.90      -99.90      -99.90      -99.90      -99.90    
   2   -99.90      -99.90      -99.90      -99.90      -99.90      -99.90      -99.90      -99.90      -99.90      -99.90    
       -99.90      -99.90      -99.90      -99.90      -99.90      -99.90      -99.90      -99.90      -99.90      -99.90    
       -99.90      -99.90      -99.90      -99.90      -99.90      -99.90      -99.90      -99.90      -99.90      -99.90    
       -99.90      -99.90      -99.90      -99.90      -99.90      -99.90      -99.90      -99.90      -99.90      -99.90    
   3   -99.90      -99.90      -99.90      -99.90      -99.90      -99.90      -99.90      -99.90      -99.90      -99.90    
       -99.90      -99.90      -99.90      -99.90      -99.90      -99.90      -99.90      -99.90      -99.90      -99.90    
       -99.90      -99.90      -99.90      -99.90      -99.90      -99.90      -99.90      -99.90      -99.90      -99.90    
       -99.90      -99.90      -99.90      -99.90      -99.90      -99.90      -99.90      -99.90      -99.90      -99.90    
   4   -99.90      -99.90      -99.90      -99.90      -99.90      -99.90      -99.90      -99.90      -99.90      -99.90    
       -99.90      -99.90      -99.90      -99.90      -99.90      -99.90      -99.90      -99.90      -99.90      -99.90    
       -99.90      -99.90      -99.90      -99.90      -99.90      -99.90      -99.90      -99.90      -99.90      -99.90    
       -99.90      -99.90      -99.90      -99.90      -99.90      -99.90      -99.90      -99.90      -99.90      -99.90    
   5   -99.90      -99.90      -99.90      -99.90      -99.90      -99.90      -99.90      -99.90      -99.90      -99.90    
       -99.90      -99.90      -99.90      -99.90      -99.90      -99.90      -99.90      -99.90      -99.90      -99.90    
       -99.90      -99.90      -99.90      -99.90      -99.90      -99.90      -99.90      -99.90      -99.90      -99.90    
       -99.90      -99.90      -99.90      -99.90      -99.90      -99.90      -99.90      -99.90      -99.90      -99.90    
   6   -99.90      -99.90      -99.90      -99.90      -99.90      -99.90      -99.90      -99.90      -99.90      -99.90    
       -99.90      -99.90      -99.90      -99.90      -99.90      -99.90      -99.90      -99.90      -99.90      -99.90    
       -99.90      -99.90      -99.90      -99.90      -99.90      -99.90      -99.90      -99.90      -99.90      -99.90    
       -99.90      -99.90      -99.90      -99.90      -99.90      -99.90      -99.90      -99.90      -99.90      -99.90    
   7   -99.90      -99.90      -99.90      -99.90      -99.90      -99.90      -99.90      -99.90      -99.90      -99.90    
       -99.90      -99.90      -99.90      -99.90      -99.90      -99.90      -99.90      -99.90      -99.90      -99.90    
       -99.90      -99.90      -99.90      -99.90      -99.90      -99.90      -99.90      -99.90      -99.90      -99.90    
       -99.90      -99.90      -99.90      -99.90      -99.90      -99.90      -99.90      -99.90      -99.90      -99.90    
   8   -99.90      -99.90      -99.90      -99.90      -99.90      -99.90      -99.90      -99.90      -99.90      -99.90    
       -99.90      -99.90      -99.90      -99.90      -99.90      -99.90      -99.90      -99.90      -99.90      -99.90    
       -99.90      -99.90      -99.90      -99.90      -99.90      -99.90      -99.90      -99.90      -99.90      -99.90    
       -99.90      -99.90      -99.90      -99.90      -99.90      -99.90      -99.90      -99.90      -99.90      -99.90    
   9   -99.90      -99.90      -99.90      -99.90      -99.90      -99.90      -99.90      -99.90      -99.90      -99.90    
       -99.90      -99.90      -99.90      -99.90      -99.90      -99.90      -99.90      -99.90      -99.90      -99.90    
       -99.90      -99.90      -99.90      -99.90      -99.90      -99.90      -99.90      -99.90      -99.90      -99.90    
       -99.90      -99.90      -99.90      -99.90      -99.90      -99.90      -99.90      -99.90      -99.90      -99.90    
  10   -99.90      -99.90      -99.90      -99.90      -99.90      -99.90      -99.90      -99.90      -99.90      -99.90    
       -99.90      -99.90      -99.90      -99.90      -99.90      -99.90      -99.90      -99.90      -99.90      -99.90    
       -99.90      -99.90      -99.90      -99.90      -99.90      -99.90      -99.90      -99.90      -99.90      -99.90    
       -99.90      -99.90      -99.90      -99.90      -99.90      -99.90      -99.90      -99.90      -99.90      -99.90    
  11   -99.90      -99.90      -99.90      -99.90      -99.90      -99.90      -99.90      -99.90      -99.90      -99.90    
       -99.90      -99.90      -99.90      -99.90      -99.90      -99.90      -99.90      -99.90      -99.90      -99.90    
       -99.90      -99.90      -99.90      -99.90      -99.90      -99.90      -99.90      -99.90      -99.90      -99.90    
       -99.90      -99.90      -99.90      -99.90      -99.90      -99.90      -99.90      -99.90      -99.90      -99.90    
  12   -99.90      -99.90      -99.90      -99.90      -99.90      -99.90      -99.90      -99.90      -99.90      -99.90    
       -99.90      -99.90      -99.90      -99.90      -99.90      -99.90      -99.90      -99.90      -99.90      -99.90    
       -99.90      -99.90      -99.90      -99.90      -99.90      -99.90      -99.90      -99.90      -99.90      -99.90    
       -99.90      -99.90      -99.90      -99.90      -99.90      -99.90      -99.90      -99.90      -99.90      -99.90    
  13   -99.90      -99.90      -99.90      -99.90      -99.90      -99.90      -99.90      -99.90      -99.90      -99.90    
       -99.90      -99.90      -99.90      -99.90      -99.90      -99.90      -99.90      -99.90      -99.90      -99.90    
       -99.90      -99.90      -99.90      -99.90      -99.90      -99.90      -99.90      -99.90      -99.90      -99.90    
       -99.90      -99.90      -99.90      -99.90      -99.90      -99.90      -99.90      -99.90      -99.90      -99.90    
  14   -99.90      -99.90      -99.90      -99.90      -99.90      -99.90      -99.90      -99.90      -99.90      -99.90    
       -99.90      -99.90      -99.90      -99.90      -99.90      -99.90      -99.90      -99.90      -99.90      -99.90    
       -99.90      -99.90      -99.90      -99.90      -99.90      -99.90      -99.90      -99.90      -99.90      -99.90    
       -99.90      -99.90      -99.90      -99.90      -99.90      -99.90      -99.90      -99.90      -99.90      -99.90    
  15   -99.90      -99.90      -99.90      -99.90      -99.90      -99.90      -99.90      -99.90      -99.90      -99.90    
       -99.90      -99.90      -99.90      -99.90      -99.90      -99.90      -99.90      -99.90      -99.90      -99.90    
       -99.90      -99.90      -99.90      -99.90      -99.90      -99.90      -99.90      -99.90      -99.90      -99.90    
       -99.90      -99.90      -99.90      -99.90      -99.90      -99.90      -99.90      -99.90      -99.90      -99.90    
  16   -99.90      -99.90      -99.90      -99.90      -99.90      -99.90      -99.90      -99.90      -99.90      -99.90    
       -99.90      -99.90      -99.90      -99.90      -99.90      -99.90      -99.90      -99.90      -99.90      -99.90    
       -99.90      -99.90      -99.90      -99.90      -99.90      -99.90      -99.90      -99.90      -99.90      -99.90    
       -99.90      -99.90      -99.90      -99.90      -99.90      -99.90      -99.90      -99.90      -99.90      -99.90    
  17   -99.90      -99.90      -99.90      -99.90      -99.90      -99.90      -99.90      -99.90      -99.90      -99.90    
       -99.90      -99.90      -99.90      -99.90      -99.90      -99.90      -99.90      -99.90      -99.90      -99.90    
       -99.90      -99.90      -99.90      -99.90      -99.90      -99.90      -99.90      -99.90      -99.90      -99.90    
       -99.90      -99.90      -99.90      -99.90      -99.90      -99.90      -99.90      -99.90      -99.90      -99.90    
  18   -99.90      -99.90      -99.90      -99.90      -99.90      -99.90      -99.90      -99.90      -99.90      -99.90    
       -99.90      -99.90      -99.90      -99.90      -99.90      -99.90      -99.90      -99.90      -99.90      -99.90    
       -99.90      -99.90      -99.90      -99.90      -99.90      -99.90      -99.90      -99.90      -99.90      -99.90    
       -99.90      -99.90      -99.90      -99.90      -99.90      -99.90      -99.90      -99.90      -99.90      -99.90    
  19   -99.90      -99.90      -99.90      -99.90      -99.90      -99.90      -99.90      -99.90      -99.90      -99.90    
       -99.90      -99.90      -99.90      -99.90      -99.90      -99.90      -99.90      -99.90      -99.90      -99.90    
       -99.90      -99.90      -99.90      -99.90      -99.90      -99.90      -99.90      -99.90      -99.90      -99.90    
       -99.90      -99.90      -99.90      -99.90      -99.90      -99.90      -99.90      -99.90      -99.90      -99.90    
  20   -99.90      -99.90      -99.90      -99.90      -99.90      -99.90      -99.90      -99.90      -99.90      -99.90    
       -99.90      -99.90      -99.90      -99.90      -99.90      -99.90      -99.90      -99.90      -99.90      -99.90    
       -99.90      -99.90      -99.90      -99.90      -99.90      -99.90      -99.90      -99.90      -99.90      -99.90    
       -99.90      -99.90      -99.90      -99.90      -99.90      -99.90      -99.90      -99.90      -99.90      -99.90    
  21   -99.90      -99.90      -99.90      -99.90      -99.90      -99.90      -99.90      -99.90      -99.90      -99.90    
       -99.90      -99.90      -99.90      -99.90      -99.90      -99.90      -99.90      -99.90      -99.90      -99.90    
       -99.90      -99.90      -99.90      -99.90      -99.90      -99.90      -99.90      -99.90      -99.90      -99.90    
       -99.90      -99.90      -99.90      -99.90      -99.90      -99.90      -99.90      -99.90      -99.90      -99.90    
  22   -99.90      -99.90      -99.90      -99.90      -99.90      -99.90      -99.90      -99.90      -99.90      -99.90    
       -99.90      -99.90      -99.90      -99.90      -99.90      -99.90      -99.90      -99.90      -99.90      -99.90    
       -99.90      -99.90      -99.90      -99.90      -99.90      -99.90      -99.90      -99.90      -99.90      -99.90    
       -99.90      -99.90      -99.90      -99.90      -99.90      -99.90      -99.90      -99.90      -99.90      -99.90    
  23   -99.90      -99.90      -99.90      -99.90      -99.90      -99.90      -99.90      -99.90      -99.90      -99.90    
       -99.90      -99.90      -99.90      -99.90      -99.90      -99.90      -99.90      -99.90      -99.90      -99.90    
       -99.90      -99.90      -99.90      -99.90      -99.90      -99.90      -99.90      -99.90      -99.90      -99.90    
       -99.90      -99.90      -99.90      -99.90      -99.90      -99.90      -99.90      -99.90      -99.90      -99.90    
  24   -99.90      -99.90      -99.90      -99.90      -99.90      -99.90      -99.90      -99.90      -99.90      -99.90    
       -99.90      -99.90      -99.90      -99.90      -99.90      -99.90      -99.90      -99.90      -99.90      -99.90    
       -99.90      -99.90      -99.90      -99.90      -99.90      -99.90      -99.90      -99.90      -99.90      -99.90    
       -99.90      -99.90      -99.90      -99.90      -99.90      -99.90      -99.90      -99.90      -99.90      -99.90    
  25   -99.90      -99.90      -99.90      -99.90      -99.90      -99.90      -99.90      -99.90      -99.90      -99.90    
       -99.90      -99.90      -99.90      -99.90      -99.90      -99.90      -99.90      -99.90      -99.90      -99.90    
       -99.90      -99.90      -99.90      -99.90      -99.90      -99.90      -99.90      -99.90      -99.90      -99.90    
       -99.90      -99.90      -99.90      -99.90      -99.90      -99.90      -99.90      -99.90      -99.90      -99.90    
  26   -99.90      -99.90      -99.90      -99.90      -99.90      -99.90      -99.90      -99.90      -99.90      -99.90    
       -99.90      -99.90      -99.90      -99.90      -99.90      -99.90      -99.90      -99.90      -99.90      -99.90    
       -99.90      -99.90      -99.90      -99.90      -99.90      -99.90      -99.90      -99.90      -99.90      -99.90    
       -99.90      -99.90      -99.90      -99.90      -99.90      -99.90      -99.90      -99.90      -99.90      -99.90    
  27   -99.90      -99.90      -99.90      -99.90      -99.90      -99.90      -99.90      -99.90      -99.90      -99.90    
       -99.90      -99.90      -99.90      -99.90      -99.90      -99.90      -99.90      -99.90      -99.90      -99.90    
       -99.90      -99.90      -99.90      -99.90      -99.90      -99.90      -99.90      -99.90      -99.90      -99.90    
       -99.90      -99.90      -99.90      -99.90      -99.90      -99.90      -99.90      -99.90      -99.90      -99.90    
  28   -99.90      -99.90      -99.90      -99.90      -99.90      -99.90      -99.90      -99.90      -99.90      -99.90    
       -99.90      -99.90      -99.90      -99.90      -99.90      -99.90      -99.90      -99.90      -99.90      -99.90    
       -99.90      -99.90      -99.90      -99.90      -99.90      -99.90      -99.90      -99.90      -99.90      -99.90    
       -99.90      -99.90      -99.90      -99.90      -99.90      -99.90      -99.90      -99.90      -99.90      -99.90    
  29   -99.90      -99.90      -99.90      -99.90      -99.90      -99.90      -99.90      -99.90      -99.90      -99.90    
       -99.90      -99.90      -99.90      -99.90      -99.90      -99.90      -99.90      -99.90      -99.90      -99.90    
       -99.90      -99.90      -99.90      -99.90      -99.90      -99.90      -99.90      -99.90      -99.90      -99.90    
       -99.90      -99.90      -99.90      -99.90      -99.90      -99.90      -99.90      -99.90      -99.90      -99.90    
  30   -99.90      -99.90      -99.90      -99.90      -99.90      -99.90      -99.90      -99.90      -99.90      -99.90    
       -99.90      -99.90      -99.90      -99.90      -99.90      -99.90      -99.90      -99.90      -99.90      -99.90    
       -99.90      -99.90      -99.90      -99.90      -99.90      -99.90      -99.90      -99.90      -99.90      -99.90    
       -99.90      -99.90      -99.90      -99.90      -99.90      -99.90      -99.90      -99.90      -99.90      -99.90    
  31   -99.90      -99.90      -99.90      -99.90      -99.90      -99.90      -99.90      -99.90      -99.90      -99.90    
       -99.90      -99.90      -99.90      -99.90      -99.90      -99.90      -99.90      -99.90      -99.90      -99.90    
       -99.90      -99.90      -99.90      -99.90      -99.90      -99.90      -99.90      -99.90      -99.90      -99.90    
       -99.90      -99.90      -99.90      -99.90      -99.90      -99.90      -99.90      -99.90      -99.90      -99.90    
  32   -99.90      -99.90      -99.90      -99.90      -99.90      -99.90      -99.90      -99.90      -99.90      -99.90    
       -99.90      -99.90      -99.90      -99.90      -99.90      -99.90      -99.90      -99.90      -99.90      -99.90    
       -99.90      -99.90      -99.90      -99.90      -99.90      -99.90      -99.90      -99.90      -99.90      -99.90    
       -99.90      -99.90      -99.90      -99.90      -99.90      -99.90      -99.90      -99.90      -99.90      -99.90    
  33   -99.90      -99.90      -99.90      -99.90      -99.90      -99.90      -99.90      -99.90      -99.90      -99.90    
       -99.90      -99.90      -99.90      -99.90      -99.90      -99.90      -99.90      -99.90      -99.90      -99.90    
       -99.90      -99.90      -99.90      -99.90      -99.90      -99.90      -99.90      -99.90      -99.90      -99.90    
       -99.90      -99.90      -99.90      -99.90      -99.90      -99.90      -99.90      -99.90      -99.90      -99.90    
  34   -99.90      -99.90      -99.90      -99.90      -99.90      -99.90      -99.90      -99.90      -99.90      -99.90    
       -99.90      -99.90      -99.90      -99.90      -99.90      -99.90      -99.90      -99.90      -99.90      -99.90    
       -99.90      -99.90      -99.90      -99.90      -99.90      -99.90      -99.90      -99.90      -99.90      -99.90    
       -99.90      -99.90      -99.90      -99.90      -99.90      -99.90      -99.90      -99.90      -99.90      -99.90    
  35   -99.90      -99.90      -99.90      -99.90      -99.90      -99.90      -99.90      -99.90      -99.90      -99.90    
       -99.90      -99.90      -99.90      -99.90      -99.90      -99.90      -99.90      -99.90      -99.90      -99.90    
       -99.90      -99.90      -99.90      -99.90      -99.90      -99.90      -99.90      -99.90      -99.90      -99.90    
       -99.90      -99.90      -99.90      -99.90      -99.90      -99.90      -99.90      -99.90      -99.90      -99.90    
  36   -99.90      -99.90      -99.90      -99.90      -99.90      -99.90      -99.90      -99.90      -99.90      -99.90    
       -99.90      -99.90      -99.90      -99.90      -99.90      -99.90      -99.90      -99.90      -99.90      -99.90    
       -99.90      -99.90      -99.90      -99.90      -99.90      -99.90      -99.90      -99.90      -99.90      -99.90    
       -99.90      -99.90      -99.90      -99.90      -99.90      -99.90      -99.90      -99.90      -99.90      -99.90    
  37   -99.90      -99.90      -99.90      -99.90      -99.90      -99.90      -99.90      -99.90      -99.90      -99.90    
       -99.90      -99.90      -99.90      -99.90      -99.90      -99.90      -99.90      -99.90      -99.90      -99.90    
       -99.90      -99.90      -99.90      -99.90      -99.90      -99.90      -99.90      -99.90      -99.90      -99.90    
       -99.90      -99.90      -99.90      -99.90      -99.90      -99.90      -99.90      -99.90      -99.90      -99.90    
  38   -99.90      -99.90      -99.90      -99.90      -99.90      -99.90      -99.90      -99.90      -99.90      -99.90    
       -99.90      -99.90      -99.90      -99.90      -99.90      -99.90      -99.90      -99.90      -99.90      -99.90    
       -99.90      -99.90      -99.90      -99.90      -99.90      -99.90      -99.90      -99.90      -99.90      -99.90    
       -99.90      -99.90      -99.90      -99.90      -99.90      -99.90      -99.90      -99.90      -99.90      -99.90    
  39   -99.90      -99.90      -99.90      -99.90      -99.90      -99.90      -99.90      -99.90      -99.90      -99.90    
       -99.90      -99.90      -99.90      -99.90      -99.90      -99.90      -99.90      -99.90      -99.90      -99.90    
       -99.90      -99.90      -99.90      -99.90      -99.90      -99.90      -99.90      -99.90      -99.90      -99.90    
       -99.90      -99.90      -99.90      -99.90      -99.90      -99.90      -99.90      -99.90      -99.90      -99.90    
  40   -99.90      -99.90      -99.90      -99.90      -99.90      -99.90      -99.90      -99.90      -99.90      -99.90    
       -99.90      -99.90      -99.90      -99.90      -99.90      -99.90      -99.90      -99.90      -99.90      -99.90    
       -99.90      -99.90      -99.90      -99.90      -99.90      -99.90      -99.90      -99.90      -99.90      -99.90    
       -99.90      -99.90      -99.90      -99.90      -99.90      -99.90      -99.90      -99.90      -99.90      -99.90    
1
              HEAD IN LAYER   4 AT END OF TIME STEP  17 IN STRESS PERIOD    3
  ---------------------------------------------------------------------------

            1           2           3           4           5           6           7           8           9          10
           11          12          13          14          15          16          17          18          19          20
           21          22          23          24          25          26          27          28          29          30
           31          32          33          34          35          36          37          38          39          40
 ........................................................................................................................
   1    54.87       53.55      -99.90      -99.90      -99.90      -99.90      -99.90      -99.90      -99.90      -99.90    
       -99.90      -99.90      -99.90      -99.90      -99.90      -99.90      -99.90      -99.90      -99.90      -99.90    
       -99.90      -99.90      -99.90      -99.90      -99.90      -99.90      -99.90      -99.90      -99.90      -99.90    
       -99.90      -99.90      -99.90      -99.90      -99.90      -99.90      -99.90      -99.90      -99.90      -99.90    
   2    53.55       52.40      -99.90      -99.90      -99.90      -99.90      -99.90      -99.90      -99.90      -99.90    
       -99.90      -99.90      -99.90      -99.90      -99.90      -99.90      -99.90      -99.90      -99.90      -99.90    
       -99.90      -99.90      -99.90      -99.90      -99.90      -99.90      -99.90      -99.90      -99.90      -99.90    
       -99.90      -99.90      -99.90      -99.90      -99.90      -99.90      -99.90      -99.90      -99.90      -99.90    
   3   -99.90      -99.90      -99.90      -99.90      -99.90      -99.90      -99.90      -99.90      -99.90      -99.90    
       -99.90      -99.90      -99.90      -99.90      -99.90      -99.90      -99.90      -99.90      -99.90      -99.90    
       -99.90      -99.90      -99.90      -99.90      -99.90      -99.90      -99.90      -99.90      -99.90      -99.90    
       -99.90      -99.90      -99.90      -99.90      -99.90      -99.90      -99.90      -99.90      -99.90      -99.90    
   4   -99.90      -99.90      -99.90      -99.90      -99.90      -99.90      -99.90      -99.90      -99.90      -99.90    
       -99.90      -99.90      -99.90      -99.90      -99.90      -99.90      -99.90      -99.90      -99.90      -99.90    
       -99.90      -99.90      -99.90      -99.90      -99.90      -99.90      -99.90      -99.90      -99.90      -99.90    
       -99.90      -99.90      -99.90      -99.90      -99.90      -99.90      -99.90      -99.90      -99.90      -99.90    
   5   -99.90      -99.90      -99.90      -99.90      -99.90      -99.90      -99.90      -99.90      -99.90      -99.90    
       -99.90      -99.90      -99.90      -99.90      -99.90      -99.90      -99.90      -99.90      -99.90      -99.90    
       -99.90      -99.90      -99.90      -99.90      -99.90      -99.90      -99.90      -99.90      -99.90      -99.90    
       -99.90      -99.90      -99.90      -99.90      -99.90      -99.90      -99.90      -99.90      -99.90      -99.90    
   6   -99.90      -99.90      -99.90      -99.90      -99.90      -99.90      -99.90      -99.90      -99.90      -99.90    
       -99.90      -99.90      -99.90      -99.90      -99.90      -99.90      -99.90      -99.90      -99.90      -99.90    
       -99.90      -99.90      -99.90      -99.90      -99.90      -99.90      -99.90      -99.90      -99.90      -99.90    
       -99.90      -99.90      -99.90      -99.90      -99.90      -99.90      -99.90      -99.90      -99.90      -99.90    
   7   -99.90      -99.90      -99.90      -99.90      -99.90      -99.90      -99.90      -99.90      -99.90      -99.90    
       -99.90      -99.90      -99.90      -99.90      -99.90      -99.90      -99.90      -99.90      -99.90      -99.90    
       -99.90      -99.90      -99.90      -99.90      -99.90      -99.90      -99.90      -99.90      -99.90      -99.90    
       -99.90      -99.90      -99.90      -99.90      -99.90      -99.90      -99.90      -99.90      -99.90      -99.90    
   8   -99.90      -99.90      -99.90      -99.90      -99.90      -99.90      -99.90      -99.90      -99.90      -99.90    
       -99.90      -99.90      -99.90      -99.90      -99.90      -99.90      -99.90      -99.90      -99.90      -99.90    
       -99.90      -99.90      -99.90      -99.90      -99.90      -99.90      -99.90      -99.90      -99.90      -99.90    
       -99.90      -99.90      -99.90      -99.90      -99.90      -99.90      -99.90      -99.90      -99.90      -99.90    
   9   -99.90      -99.90      -99.90      -99.90      -99.90      -99.90      -99.90      -99.90      -99.90      -99.90    
       -99.90      -99.90      -99.90      -99.90      -99.90      -99.90      -99.90      -99.90      -99.90      -99.90    
       -99.90      -99.90      -99.90      -99.90      -99.90      -99.90      -99.90      -99.90      -99.90      -99.90    
       -99.90      -99.90      -99.90      -99.90      -99.90      -99.90      -99.90      -99.90      -99.90      -99.90    
  10   -99.90      -99.90      -99.90      -99.90      -99.90      -99.90      -99.90      -99.90      -99.90      -99.90    
       -99.90      -99.90      -99.90      -99.90      -99.90      -99.90      -99.90      -99.90      -99.90      -99.90    
       -99.90      -99.90      -99.90      -99.90      -99.90      -99.90      -99.90      -99.90      -99.90      -99.90    
       -99.90      -99.90      -99.90      -99.90      -99.90      -99.90      -99.90      -99.90      -99.90      -99.90    
  11   -99.90      -99.90      -99.90      -99.90      -99.90      -99.90      -99.90      -99.90      -99.90      -99.90    
       -99.90      -99.90      -99.90      -99.90      -99.90      -99.90      -99.90      -99.90      -99.90      -99.90    
       -99.90      -99.90      -99.90      -99.90      -99.90      -99.90      -99.90      -99.90      -99.90      -99.90    
       -99.90      -99.90      -99.90      -99.90      -99.90      -99.90      -99.90      -99.90      -99.90      -99.90    
  12   -99.90      -99.90      -99.90      -99.90      -99.90      -99.90      -99.90      -99.90      -99.90      -99.90    
       -99.90      -99.90      -99.90      -99.90      -99.90      -99.90      -99.90      -99.90      -99.90      -99.90    
       -99.90      -99.90      -99.90      -99.90      -99.90      -99.90      -99.90      -99.90      -99.90      -99.90    
       -99.90      -99.90      -99.90      -99.90      -99.90      -99.90      -99.90      -99.90      -99.90      -99.90    
  13   -99.90      -99.90      -99.90      -99.90      -99.90      -99.90      -99.90      -99.90      -99.90      -99.90    
       -99.90      -99.90      -99.90      -99.90      -99.90      -99.90      -99.90      -99.90      -99.90      -99.90    
       -99.90      -99.90      -99.90      -99.90      -99.90      -99.90      -99.90      -99.90      -99.90      -99.90    
       -99.90      -99.90      -99.90      -99.90      -99.90      -99.90      -99.90      -99.90      -99.90      -99.90    
  14   -99.90      -99.90      -99.90      -99.90      -99.90      -99.90      -99.90      -99.90      -99.90      -99.90    
       -99.90      -99.90      -99.90      -99.90      -99.90      -99.90      -99.90      -99.90      -99.90      -99.90    
       -99.90      -99.90      -99.90      -99.90      -99.90      -99.90      -99.90      -99.90      -99.90      -99.90    
       -99.90      -99.90      -99.90      -99.90      -99.90      -99.90      -99.90      -99.90      -99.90      -99.90    
  15   -99.90      -99.90      -99.90      -99.90      -99.90      -99.90      -99.90      -99.90      -99.90      -99.90    
       -99.90      -99.90      -99.90      -99.90      -99.90      -99.90      -99.90      -99.90      -99.90      -99.90    
       -99.90      -99.90      -99.90      -99.90      -99.90      -99.90      -99.90      -99.90      -99.90      -99.90    
       -99.90      -99.90      -99.90      -99.90      -99.90      -99.90      -99.90      -99.90      -99.90      -99.90    
  16   -99.90      -99.90      -99.90      -99.90      -99.90      -99.90      -99.90      -99.90      -99.90      -99.90    
       -99.90      -99.90      -99.90      -99.90      -99.90      -99.90      -99.90      -99.90      -99.90      -99.90    
       -99.90      -99.90      -99.90      -99.90      -99.90      -99.90      -99.90      -99.90      -99.90      -99.90    
       -99.90      -99.90      -99.90      -99.90      -99.90      -99.90      -99.90      -99.90      -99.90      -99.90    
  17   -99.90      -99.90      -99.90      -99.90      -99.90      -99.90      -99.90      -99.90      -99.90      -99.90    
       -99.90      -99.90      -99.90      -99.90      -99.90      -99.90      -99.90      -99.90      -99.90      -99.90    
       -99.90      -99.90      -99.90      -99.90      -99.90      -99.90      -99.90      -99.90      -99.90      -99.90    
       -99.90      -99.90      -99.90      -99.90      -99.90      -99.90      -99.90      -99.90      -99.90      -99.90    
  18   -99.90      -99.90      -99.90      -99.90      -99.90      -99.90      -99.90      -99.90      -99.90      -99.90    
       -99.90      -99.90      -99.90      -99.90      -99.90      -99.90      -99.90      -99.90      -99.90      -99.90    
       -99.90      -99.90      -99.90      -99.90      -99.90      -99.90      -99.90      -99.90      -99.90      -99.90    
       -99.90      -99.90      -99.90      -99.90      -99.90      -99.90      -99.90      -99.90      -99.90      -99.90    
  19   -99.90      -99.90      -99.90      -99.90      -99.90      -99.90      -99.90      -99.90      -99.90      -99.90    
       -99.90      -99.90      -99.90      -99.90      -99.90      -99.90      -99.90      -99.90      -99.90      -99.90    
       -99.90      -99.90      -99.90      -99.90      -99.90      -99.90      -99.90      -99.90      -99.90      -99.90    
       -99.90      -99.90      -99.90      -99.90      -99.90      -99.90      -99.90      -99.90      -99.90      -99.90    
  20   -99.90      -99.90      -99.90      -99.90      -99.90      -99.90      -99.90      -99.90      -99.90      -99.90    
       -99.90      -99.90      -99.90      -99.90      -99.90      -99.90      -99.90      -99.90      -99.90      -99.90    
       -99.90      -99.90      -99.90      -99.90      -99.90      -99.90      -99.90      -99.90      -99.90      -99.90    
       -99.90      -99.90      -99.90      -99.90      -99.90      -99.90      -99.90      -99.90      -99.90      -99.90    
  21   -99.90      -99.90      -99.90      -99.90      -99.90      -99.90      -99.90      -99.90      -99.90      -99.90    
       -99.90      -99.90      -99.90      -99.90      -99.90      -99.90      -99.90      -99.90      -99.90      -99.90    
       -99.90      -99.90      -99.90      -99.90      -99.90      -99.90      -99.90      -99.90      -99.90      -99.90    
       -99.90      -99.90      -99.90      -99.90      -99.90      -99.90      -99.90      -99.90      -99.90      -99.90    
  22   -99.90      -99.90      -99.90      -99.90      -99.90      -99.90      -99.90      -99.90      -99.90      -99.90    
       -99.90      -99.90      -99.90      -99.90      -99.90      -99.90      -99.90      -99.90      -99.90      -99.90    
       -99.90      -99.90      -99.90      -99.90      -99.90      -99.90      -99.90      -99.90      -99.90      -99.90    
       -99.90      -99.90      -99.90      -99.90      -99.90      -99.90      -99.90      -99.90      -99.90      -99.90    
  23   -99.90      -99.90      -99.90      -99.90      -99.90      -99.90      -99.90      -99.90      -99.90      -99.90    
       -99.90      -99.90      -99.90      -99.90      -99.90      -99.90      -99.90      -99.90      -99.90      -99.90    
       -99.90      -99.90      -99.90      -99.90      -99.90      -99.90      -99.90      -99.90      -99.90      -99.90    
       -99.90      -99.90      -99.90      -99.90      -99.90      -99.90      -99.90      -99.90      -99.90      -99.90    
  24   -99.90      -99.90      -99.90      -99.90      -99.90      -99.90      -99.90      -99.90      -99.90      -99.90    
       -99.90      -99.90      -99.90      -99.90      -99.90      -99.90      -99.90      -99.90      -99.90      -99.90    
       -99.90      -99.90      -99.90      -99.90      -99.90      -99.90      -99.90      -99.90      -99.90      -99.90    
       -99.90      -99.90      -99.90      -99.90      -99.90      -99.90      -99.90      -99.90      -99.90      -99.90    
  25   -99.90      -99.90      -99.90      -99.90      -99.90      -99.90      -99.90      -99.90      -99.90      -99.90    
       -99.90      -99.90      -99.90      -99.90      -99.90      -99.90      -99.90      -99.90      -99.90      -99.90    
       -99.90      -99.90      -99.90      -99.90      -99.90      -99.90      -99.90      -99.90      -99.90      -99.90    
       -99.90      -99.90      -99.90      -99.90      -99.90      -99.90      -99.90      -99.90      -99.90      -99.90    
  26   -99.90      -99.90      -99.90      -99.90      -99.90      -99.90      -99.90      -99.90      -99.90      -99.90    
       -99.90      -99.90      -99.90      -99.90      -99.90      -99.90      -99.90      -99.90      -99.90      -99.90    
       -99.90      -99.90      -99.90      -99.90      -99.90      -99.90      -99.90      -99.90      -99.90      -99.90    
       -99.90      -99.90      -99.90      -99.90      -99.90      -99.90      -99.90      -99.90      -99.90      -99.90    
  27   -99.90      -99.90      -99.90      -99.90      -99.90      -99.90      -99.90      -99.90      -99.90      -99.90    
       -99.90      -99.90      -99.90      -99.90      -99.90      -99.90      -99.90      -99.90      -99.90      -99.90    
       -99.90      -99.90      -99.90      -99.90      -99.90      -99.90      -99.90      -99.90      -99.90      -99.90    
       -99.90      -99.90      -99.90      -99.90      -99.90      -99.90      -99.90      -99.90      -99.90      -99.90    
  28   -99.90      -99.90      -99.90      -99.90      -99.90      -99.90      -99.90      -99.90      -99.90      -99.90    
       -99.90      -99.90      -99.90      -99.90      -99.90      -99.90      -99.90      -99.90      -99.90      -99.90    
       -99.90      -99.90      -99.90      -99.90      -99.90      -99.90      -99.90      -99.90      -99.90      -99.90    
       -99.90      -99.90      -99.90      -99.90      -99.90      -99.90      -99.90      -99.90      -99.90      -99.90    
  29   -99.90      -99.90      -99.90      -99.90      -99.90      -99.90      -99.90      -99.90      -99.90      -99.90    
       -99.90      -99.90      -99.90      -99.90      -99.90      -99.90      -99.90      -99.90      -99.90      -99.90    
       -99.90      -99.90      -99.90      -99.90      -99.90      -99.90      -99.90      -99.90      -99.90      -99.90    
       -99.90      -99.90      -99.90      -99.90      -99.90      -99.90      -99.90      -99.90      -99.90      -99.90    
  30   -99.90      -99.90      -99.90      -99.90      -99.90      -99.90      -99.90      -99.90      -99.90      -99.90    
       -99.90      -99.90      -99.90      -99.90      -99.90      -99.90      -99.90      -99.90      -99.90      -99.90    
       -99.90      -99.90      -99.90      -99.90      -99.90      -99.90      -99.90      -99.90      -99.90      -99.90    
       -99.90      -99.90      -99.90      -99.90      -99.90      -99.90      -99.90      -99.90      -99.90      -99.90    
  31   -99.90      -99.90      -99.90      -99.90      -99.90      -99.90      -99.90      -99.90      -99.90      -99.90    
       -99.90      -99.90      -99.90      -99.90      -99.90      -99.90      -99.90      -99.90      -99.90      -99.90    
       -99.90      -99.90      -99.90      -99.90      -99.90      -99.90      -99.90      -99.90      -99.90      -99.90    
       -99.90      -99.90      -99.90      -99.90      -99.90      -99.90      -99.90      -99.90      -99.90      -99.90    
  32   -99.90      -99.90      -99.90      -99.90      -99.90      -99.90      -99.90      -99.90      -99.90      -99.90    
       -99.90      -99.90      -99.90      -99.90      -99.90      -99.90      -99.90      -99.90      -99.90      -99.90    
       -99.90      -99.90      -99.90      -99.90      -99.90      -99.90      -99.90      -99.90      -99.90      -99.90    
       -99.90      -99.90      -99.90      -99.90      -99.90      -99.90      -99.90      -99.90      -99.90      -99.90    
  33   -99.90      -99.90      -99.90      -99.90      -99.90      -99.90      -99.90      -99.90      -99.90      -99.90    
       -99.90      -99.90      -99.90      -99.90      -99.90      -99.90      -99.90      -99.90      -99.90      -99.90    
       -99.90      -99.90      -99.90      -99.90      -99.90      -99.90      -99.90      -99.90      -99.90      -99.90    
       -99.90      -99.90      -99.90      -99.90      -99.90      -99.90      -99.90      -99.90      -99.90      -99.90    
  34   -99.90      -99.90      -99.90      -99.90      -99.90      -99.90      -99.90      -99.90      -99.90      -99.90    
       -99.90      -99.90      -99.90      -99.90      -99.90      -99.90      -99.90      -99.90      -99.90      -99.90    
       -99.90      -99.90      -99.90      -99.90      -99.90      -99.90      -99.90      -99.90      -99.90      -99.90    
       -99.90      -99.90      -99.90      -99.90      -99.90      -99.90      -99.90      -99.90      -99.90      -99.90    
  35   -99.90      -99.90      -99.90      -99.90      -99.90      -99.90      -99.90      -99.90      -99.90      -99.90    
       -99.90      -99.90      -99.90      -99.90      -99.90      -99.90      -99.90      -99.90      -99.90      -99.90    
       -99.90      -99.90      -99.90      -99.90      -99.90      -99.90      -99.90      -99.90      -99.90      -99.90    
       -99.90      -99.90      -99.90      -99.90      -99.90      -99.90      -99.90      -99.90      -99.90      -99.90    
  36   -99.90      -99.90      -99.90      -99.90      -99.90      -99.90      -99.90      -99.90      -99.90      -99.90    
       -99.90      -99.90      -99.90      -99.90      -99.90      -99.90      -99.90      -99.90      -99.90      -99.90    
       -99.90      -99.90      -99.90      -99.90      -99.90      -99.90      -99.90      -99.90      -99.90      -99.90    
       -99.90      -99.90      -99.90      -99.90      -99.90      -99.90      -99.90      -99.90      -99.90      -99.90    
  37   -99.90      -99.90      -99.90      -99.90      -99.90      -99.90      -99.90      -99.90      -99.90      -99.90    
       -99.90      -99.90      -99.90      -99.90      -99.90      -99.90      -99.90      -99.90      -99.90      -99.90    
       -99.90      -99.90      -99.90      -99.90      -99.90      -99.90      -99.90      -99.90      -99.90      -99.90    
       -99.90      -99.90      -99.90      -99.90      -99.90      -99.90      -99.90      -99.90      -99.90      -99.90    
  38   -99.90      -99.90      -99.90      -99.90      -99.90      -99.90      -99.90      -99.90      -99.90      -99.90    
       -99.90      -99.90      -99.90      -99.90      -99.90      -99.90      -99.90      -99.90      -99.90      -99.90    
       -99.90      -99.90      -99.90      -99.90      -99.90      -99.90      -99.90      -99.90      -99.90      -99.90    
       -99.90      -99.90      -99.90      -99.90      -99.90      -99.90      -99.90      -99.90      -99.90      -99.90    
  39   -99.90      -99.90      -99.90      -99.90      -99.90      -99.90      -99.90      -99.90      -99.90      -99.90    
       -99.90      -99.90      -99.90      -99.90      -99.90      -99.90      -99.90      -99.90      -99.90      -99.90    
       -99.90      -99.90      -99.90      -99.90      -99.90      -99.90      -99.90      -99.90      -99.90      -99.90    
       -99.90      -99.90      -99.90      -99.90      -99.90      -99.90      -99.90      -99.90      -99.90      -99.90    
  40   -99.90      -99.90      -99.90      -99.90      -99.90      -99.90      -99.90      -99.90      -99.90      -99.90    
       -99.90      -99.90      -99.90      -99.90      -99.90      -99.90      -99.90      -99.90      -99.90      -99.90    
       -99.90      -99.90      -99.90      -99.90      -99.90      -99.90      -99.90      -99.90      -99.90      -99.90    
       -99.90      -99.90      -99.90      -99.90      -99.90      -99.90      -99.90      -99.90      -99.90      -99.90    
1
              HEAD IN LAYER   5 AT END OF TIME STEP  17 IN STRESS PERIOD    3
  ---------------------------------------------------------------------------

            1           2           3           4           5           6           7           8           9          10
           11          12          13          14          15          16          17          18          19          20
           21          22          23          24          25          26          27          28          29          30
           31          32          33          34          35          36          37          38          39          40
 ........................................................................................................................
   1    53.95       52.54       46.76      -99.90      -99.90      -99.90      -99.90      -99.90      -99.90      -99.90    
       -99.90      -99.90      -99.90      -99.90      -99.90      -99.90      -99.90      -99.90      -99.90      -99.90    
       -99.90      -99.90      -99.90      -99.90      -99.90      -99.90      -99.90      -99.90      -99.90      -99.90    
       -99.90      -99.90      -99.90      -99.90      -99.90      -99.90      -99.90      -99.90      -99.90      -99.90    
   2    52.54       51.36       45.72      -99.90      -99.90      -99.90      -99.90      -99.90      -99.90      -99.90    
       -99.90      -99.90      -99.90      -99.90      -99.90      -99.90      -99.90      -99.90      -99.90      -99.90    
       -99.90      -99.90      -99.90      -99.90      -99.90      -99.90      -99.90      -99.90      -99.90      -99.90    
       -99.90      -99.90      -99.90      -99.90      -99.90      -99.90      -99.90      -99.90      -99.90      -99.90    
   3    46.76       45.72      -99.90      -99.90      -99.90      -99.90      -99.90      -99.90      -99.90      -99.90    
       -99.90      -99.90      -99.90      -99.90      -99.90      -99.90      -99.90      -99.90      -99.90      -99.90    
       -99.90      -99.90      -99.90      -99.90      -99.90      -99.90      -99.90      -99.90      -99.90      -99.90    
       -99.90      -99.90      -99.90      -99.90      -99.90      -99.90      -99.90      -99.90      -99.90      -99.90    
   4   -99.90      -99.90      -99.90      -99.90      -99.90      -99.90      -99.90      -99.90      -99.90      -99.90    
       -99.90      -99.90      -99.90      -99.90      -99.90      -99.90      -99.90      -99.90      -99.90      -99.90    
       -99.90      -99.90      -99.90      -99.90      -99.90      -99.90      -99.90      -99.90      -99.90      -99.90    
       -99.90      -99.90      -99.90      -99.90      -99.90      -99.90      -99.90      -99.90      -99.90      -99.90    
   5   -99.90      -99.90      -99.90      -99.90      -99.90      -99.90      -99.90      -99.90      -99.90      -99.90    
       -99.90      -99.90      -99.90      -99.90      -99.90      -99.90      -99.90      -99.90      -99.90      -99.90    
       -99.90      -99.90      -99.90      -99.90      -99.90      -99.90      -99.90      -99.90      -99.90      -99.90    
       -99.90      -99.90      -99.90      -99.90      -99.90      -99.90      -99.90      -99.90      -99.90      -99.90    
   6   -99.90      -99.90      -99.90      -99.90      -99.90      -99.90      -99.90      -99.90      -99.90      -99.90    
       -99.90      -99.90      -99.90      -99.90      -99.90      -99.90      -99.90      -99.90      -99.90      -99.90    
       -99.90      -99.90      -99.90      -99.90      -99.90      -99.90      -99.90      -99.90      -99.90      -99.90    
       -99.90      -99.90      -99.90      -99.90      -99.90      -99.90      -99.90      -99.90      -99.90      -99.90    
   7   -99.90      -99.90      -99.90      -99.90      -99.90      -99.90      -99.90      -99.90      -99.90      -99.90    
       -99.90      -99.90      -99.90      -99.90      -99.90      -99.90      -99.90      -99.90      -99.90      -99.90    
       -99.90      -99.90      -99.90      -99.90      -99.90      -99.90      -99.90      -99.90      -99.90      -99.90    
       -99.90      -99.90      -99.90      -99.90      -99.90      -99.90      -99.90      -99.90      -99.90      -99.90    
   8   -99.90      -99.90      -99.90      -99.90      -99.90      -99.90      -99.90      -99.90      -99.90      -99.90    
       -99.90      -99.90      -99.90      -99.90      -99.90      -99.90      -99.90      -99.90      -99.90      -99.90    
       -99.90      -99.90      -99.90      -99.90      -99.90      -99.90      -99.90      -99.90      -99.90      -99.90    
       -99.90      -99.90      -99.90      -99.90      -99.90      -99.90      -99.90      -99.90      -99.90      -99.90    
   9   -99.90      -99.90      -99.90      -99.90      -99.90      -99.90      -99.90      -99.90      -99.90      -99.90    
       -99.90      -99.90      -99.90      -99.90      -99.90      -99.90      -99.90      -99.90      -99.90      -99.90    
       -99.90      -99.90      -99.90      -99.90      -99.90      -99.90      -99.90      -99.90      -99.90      -99.90    
       -99.90      -99.90      -99.90      -99.90      -99.90      -99.90      -99.90      -99.90      -99.90      -99.90    
  10   -99.90      -99.90      -99.90      -99.90      -99.90      -99.90      -99.90      -99.90      -99.90      -99.90    
       -99.90      -99.90      -99.90      -99.90      -99.90      -99.90      -99.90      -99.90      -99.90      -99.90    
       -99.90      -99.90      -99.90      -99.90      -99.90      -99.90      -99.90      -99.90      -99.90      -99.90    
       -99.90      -99.90      -99.90      -99.90      -99.90      -99.90      -99.90      -99.90      -99.90      -99.90    
  11   -99.90      -99.90      -99.90      -99.90      -99.90      -99.90      -99.90      -99.90      -99.90      -99.90    
       -99.90      -99.90      -99.90      -99.90      -99.90      -99.90      -99.90      -99.90      -99.90      -99.90    
       -99.90      -99.90      -99.90      -99.90      -99.90      -99.90      -99.90      -99.90      -99.90      -99.90    
       -99.90      -99.90      -99.90      -99.90      -99.90      -99.90      -99.90      -99.90      -99.90      -99.90    
  12   -99.90      -99.90      -99.90      -99.90      -99.90      -99.90      -99.90      -99.90      -99.90      -99.90    
       -99.90      -99.90      -99.90      -99.90      -99.90      -99.90      -99.90      -99.90      -99.90      -99.90    
       -99.90      -99.90      -99.90      -99.90      -99.90      -99.90      -99.90      -99.90      -99.90      -99.90    
       -99.90      -99.90      -99.90      -99.90      -99.90      -99.90      -99.90      -99.90      -99.90      -99.90    
  13   -99.90      -99.90      -99.90      -99.90      -99.90      -99.90      -99.90      -99.90      -99.90      -99.90    
       -99.90      -99.90      -99.90      -99.90      -99.90      -99.90      -99.90      -99.90      -99.90      -99.90    
       -99.90      -99.90      -99.90      -99.90      -99.90      -99.90      -99.90      -99.90      -99.90      -99.90    
       -99.90      -99.90      -99.90      -99.90      -99.90      -99.90      -99.90      -99.90      -99.90      -99.90    
  14   -99.90      -99.90      -99.90      -99.90      -99.90      -99.90      -99.90      -99.90      -99.90      -99.90    
       -99.90      -99.90      -99.90      -99.90      -99.90      -99.90      -99.90      -99.90      -99.90      -99.90    
       -99.90      -99.90      -99.90      -99.90      -99.90      -99.90      -99.90      -99.90      -99.90      -99.90    
       -99.90      -99.90      -99.90      -99.90      -99.90      -99.90      -99.90      -99.90      -99.90      -99.90    
  15   -99.90      -99.90      -99.90      -99.90      -99.90      -99.90      -99.90      -99.90      -99.90      -99.90    
       -99.90      -99.90      -99.90      -99.90      -99.90      -99.90      -99.90      -99.90      -99.90      -99.90    
       -99.90      -99.90      -99.90      -99.90      -99.90      -99.90      -99.90      -99.90      -99.90      -99.90    
       -99.90      -99.90      -99.90      -99.90      -99.90      -99.90      -99.90      -99.90      -99.90      -99.90    
  16   -99.90      -99.90      -99.90      -99.90      -99.90      -99.90      -99.90      -99.90      -99.90      -99.90    
       -99.90      -99.90      -99.90      -99.90      -99.90      -99.90      -99.90      -99.90      -99.90      -99.90    
       -99.90      -99.90      -99.90      -99.90      -99.90      -99.90      -99.90      -99.90      -99.90      -99.90    
       -99.90      -99.90      -99.90      -99.90      -99.90      -99.90      -99.90      -99.90      -99.90      -99.90    
  17   -99.90      -99.90      -99.90      -99.90      -99.90      -99.90      -99.90      -99.90      -99.90      -99.90    
       -99.90      -99.90      -99.90      -99.90      -99.90      -99.90      -99.90      -99.90      -99.90      -99.90    
       -99.90      -99.90      -99.90      -99.90      -99.90      -99.90      -99.90      -99.90      -99.90      -99.90    
       -99.90      -99.90      -99.90      -99.90      -99.90      -99.90      -99.90      -99.90      -99.90      -99.90    
  18   -99.90      -99.90      -99.90      -99.90      -99.90      -99.90      -99.90      -99.90      -99.90      -99.90    
       -99.90      -99.90      -99.90      -99.90      -99.90      -99.90      -99.90      -99.90      -99.90      -99.90    
       -99.90      -99.90      -99.90      -99.90      -99.90      -99.90      -99.90      -99.90      -99.90      -99.90    
       -99.90      -99.90      -99.90      -99.90      -99.90      -99.90      -99.90      -99.90      -99.90      -99.90    
  19   -99.90      -99.90      -99.90      -99.90      -99.90      -99.90      -99.90      -99.90      -99.90      -99.90    
       -99.90      -99.90      -99.90      -99.90      -99.90      -99.90      -99.90      -99.90      -99.90      -99.90    
       -99.90      -99.90      -99.90      -99.90      -99.90      -99.90      -99.90      -99.90      -99.90      -99.90    
       -99.90      -99.90      -99.90      -99.90      -99.90      -99.90      -99.90      -99.90      -99.90      -99.90    
  20   -99.90      -99.90      -99.90      -99.90      -99.90      -99.90      -99.90      -99.90      -99.90      -99.90    
       -99.90      -99.90      -99.90      -99.90      -99.90      -99.90      -99.90      -99.90      -99.90      -99.90    
       -99.90      -99.90      -99.90      -99.90      -99.90      -99.90      -99.90      -99.90      -99.90      -99.90    
       -99.90      -99.90      -99.90      -99.90      -99.90      -99.90      -99.90      -99.90      -99.90      -99.90    
  21   -99.90      -99.90      -99.90      -99.90      -99.90      -99.90      -99.90      -99.90      -99.90      -99.90    
       -99.90      -99.90      -99.90      -99.90      -99.90      -99.90      -99.90      -99.90      -99.90      -99.90    
       -99.90      -99.90      -99.90      -99.90      -99.90      -99.90      -99.90      -99.90      -99.90      -99.90    
       -99.90      -99.90      -99.90      -99.90      -99.90      -99.90      -99.90      -99.90      -99.90      -99.90    
  22   -99.90      -99.90      -99.90      -99.90      -99.90      -99.90      -99.90      -99.90      -99.90      -99.90    
       -99.90      -99.90      -99.90      -99.90      -99.90      -99.90      -99.90      -99.90      -99.90      -99.90    
       -99.90      -99.90      -99.90      -99.90      -99.90      -99.90      -99.90      -99.90      -99.90      -99.90    
       -99.90      -99.90      -99.90      -99.90      -99.90      -99.90      -99.90      -99.90      -99.90      -99.90    
  23   -99.90      -99.90      -99.90      -99.90      -99.90      -99.90      -99.90      -99.90      -99.90      -99.90    
       -99.90      -99.90      -99.90      -99.90      -99.90      -99.90      -99.90      -99.90      -99.90      -99.90    
       -99.90      -99.90      -99.90      -99.90      -99.90      -99.90      -99.90      -99.90      -99.90      -99.90    
       -99.90      -99.90      -99.90      -99.90      -99.90      -99.90      -99.90      -99.90      -99.90      -99.90    
  24   -99.90      -99.90      -99.90      -99.90      -99.90      -99.90      -99.90      -99.90      -99.90      -99.90    
       -99.90      -99.90      -99.90      -99.90      -99.90      -99.90      -99.90      -99.90      -99.90      -99.90    
       -99.90      -99.90      -99.90      -99.90      -99.90      -99.90      -99.90      -99.90      -99.90      -99.90    
       -99.90      -99.90      -99.90      -99.90      -99.90      -99.90      -99.90      -99.90      -99.90      -99.90    
  25   -99.90      -99.90      -99.90      -99.90      -99.90      -99.90      -99.90      -99.90      -99.90      -99.90    
       -99.90      -99.90      -99.90      -99.90      -99.90      -99.90      -99.90      -99.90      -99.90      -99.90    
       -99.90      -99.90      -99.90      -99.90      -99.90      -99.90      -99.90      -99.90      -99.90      -99.90    
       -99.90      -99.90      -99.90      -99.90      -99.90      -99.90      -99.90      -99.90      -99.90      -99.90    
  26   -99.90      -99.90      -99.90      -99.90      -99.90      -99.90      -99.90      -99.90      -99.90      -99.90    
       -99.90      -99.90      -99.90      -99.90      -99.90      -99.90      -99.90      -99.90      -99.90      -99.90    
       -99.90      -99.90      -99.90      -99.90      -99.90      -99.90      -99.90      -99.90      -99.90      -99.90    
       -99.90      -99.90      -99.90      -99.90      -99.90      -99.90      -99.90      -99.90      -99.90      -99.90    
  27   -99.90      -99.90      -99.90      -99.90      -99.90      -99.90      -99.90      -99.90      -99.90      -99.90    
       -99.90      -99.90      -99.90      -99.90      -99.90      -99.90      -99.90      -99.90      -99.90      -99.90    
       -99.90      -99.90      -99.90      -99.90      -99.90      -99.90      -99.90      -99.90      -99.90      -99.90    
       -99.90      -99.90      -99.90      -99.90      -99.90      -99.90      -99.90      -99.90      -99.90      -99.90    
  28   -99.90      -99.90      -99.90      -99.90      -99.90      -99.90      -99.90      -99.90      -99.90      -99.90    
       -99.90      -99.90      -99.90      -99.90      -99.90      -99.90      -99.90      -99.90      -99.90      -99.90    
       -99.90      -99.90      -99.90      -99.90      -99.90      -99.90      -99.90      -99.90      -99.90      -99.90    
       -99.90      -99.90      -99.90      -99.90      -99.90      -99.90      -99.90      -99.90      -99.90      -99.90    
  29   -99.90      -99.90      -99.90      -99.90      -99.90      -99.90      -99.90      -99.90      -99.90      -99.90    
       -99.90      -99.90      -99.90      -99.90      -99.90      -99.90      -99.90      -99.90      -99.90      -99.90    
       -99.90      -99.90      -99.90      -99.90      -99.90      -99.90      -99.90      -99.90      -99.90      -99.90    
       -99.90      -99.90      -99.90      -99.90      -99.90      -99.90      -99.90      -99.90      -99.90      -99.90    
  30   -99.90      -99.90      -99.90      -99.90      -99.90      -99.90      -99.90      -99.90      -99.90      -99.90    
       -99.90      -99.90      -99.90      -99.90      -99.90      -99.90      -99.90      -99.90      -99.90      -99.90    
       -99.90      -99.90      -99.90      -99.90      -99.90      -99.90      -99.90      -99.90      -99.90      -99.90    
       -99.90      -99.90      -99.90      -99.90      -99.90      -99.90      -99.90      -99.90      -99.90      -99.90    
  31   -99.90      -99.90      -99.90      -99.90      -99.90      -99.90      -99.90      -99.90      -99.90      -99.90    
       -99.90      -99.90      -99.90      -99.90      -99.90      -99.90      -99.90      -99.90      -99.90      -99.90    
       -99.90      -99.90      -99.90      -99.90      -99.90      -99.90      -99.90      -99.90      -99.90      -99.90    
       -99.90      -99.90      -99.90      -99.90      -99.90      -99.90      -99.90      -99.90      -99.90      -99.90    
  32   -99.90      -99.90      -99.90      -99.90      -99.90      -99.90      -99.90      -99.90      -99.90      -99.90    
       -99.90      -99.90      -99.90      -99.90      -99.90      -99.90      -99.90      -99.90      -99.90      -99.90    
       -99.90      -99.90      -99.90      -99.90      -99.90      -99.90      -99.90      -99.90      -99.90      -99.90    
       -99.90      -99.90      -99.90      -99.90      -99.90      -99.90      -99.90      -99.90      -99.90      -99.90    
  33   -99.90      -99.90      -99.90      -99.90      -99.90      -99.90      -99.90      -99.90      -99.90      -99.90    
       -99.90      -99.90      -99.90      -99.90      -99.90      -99.90      -99.90      -99.90      -99.90      -99.90    
       -99.90      -99.90      -99.90      -99.90      -99.90      -99.90      -99.90      -99.90      -99.90      -99.90    
       -99.90      -99.90      -99.90      -99.90      -99.90      -99.90      -99.90      -99.90      -99.90      -99.90    
  34   -99.90      -99.90      -99.90      -99.90      -99.90      -99.90      -99.90      -99.90      -99.90      -99.90    
       -99.90      -99.90      -99.90      -99.90      -99.90      -99.90      -99.90      -99.90      -99.90      -99.90    
       -99.90      -99.90      -99.90      -99.90      -99.90      -99.90      -99.90      -99.90      -99.90      -99.90    
       -99.90      -99.90      -99.90      -99.90      -99.90      -99.90      -99.90      -99.90      -99.90      -99.90    
  35   -99.90      -99.90      -99.90      -99.90      -99.90      -99.90      -99.90      -99.90      -99.90      -99.90    
       -99.90      -99.90      -99.90      -99.90      -99.90      -99.90      -99.90      -99.90      -99.90      -99.90    
       -99.90      -99.90      -99.90      -99.90      -99.90      -99.90      -99.90      -99.90      -99.90      -99.90    
       -99.90      -99.90      -99.90      -99.90      -99.90      -99.90      -99.90      -99.90      -99.90      -99.90    
  36   -99.90      -99.90      -99.90      -99.90      -99.90      -99.90      -99.90      -99.90      -99.90      -99.90    
       -99.90      -99.90      -99.90      -99.90      -99.90      -99.90      -99.90      -99.90      -99.90      -99.90    
       -99.90      -99.90      -99.90      -99.90      -99.90      -99.90      -99.90      -99.90      -99.90      -99.90    
       -99.90      -99.90      -99.90      -99.90      -99.90      -99.90      -99.90      -99.90      -99.90      -99.90    
  37   -99.90      -99.90      -99.90      -99.90      -99.90      -99.90      -99.90      -99.90      -99.90      -99.90    
       -99.90      -99.90      -99.90      -99.90      -99.90      -99.90      -99.90      -99.90      -99.90      -99.90    
       -99.90      -99.90      -99.90      -99.90      -99.90      -99.90      -99.90      -99.90      -99.90      -99.90    
       -99.90      -99.90      -99.90      -99.90      -99.90      -99.90      -99.90      -99.90      -99.90      -99.90    
  38   -99.90      -99.90      -99.90      -99.90      -99.90      -99.90      -99.90      -99.90      -99.90      -99.90    
       -99.90      -99.90      -99.90      -99.90      -99.90      -99.90      -99.90      -99.90      -99.90      -99.90    
       -99.90      -99.90      -99.90      -99.90      -99.90      -99.90      -99.90      -99.90      -99.90      -99.90    
       -99.90      -99.90      -99.90      -99.90      -99.90      -99.90      -99.90      -99.90      -99.90      -99.90    
  39   -99.90      -99.90      -99.90      -99.90      -99.90      -99.90      -99.90      -99.90      -99.90      -99.90    
       -99.90      -99.90      -99.90      -99.90      -99.90      -99.90      -99.90      -99.90      -99.90      -99.90    
       -99.90      -99.90      -99.90      -99.90      -99.90      -99.90      -99.90      -99.90      -99.90      -99.90    
       -99.90      -99.90      -99.90      -99.90      -99.90      -99.90      -99.90      -99.90      -99.90      -99.90    
  40   -99.90      -99.90      -99.90      -99.90      -99.90      -99.90      -99.90      -99.90      -99.90      -99.90    
       -99.90      -99.90      -99.90      -99.90      -99.90      -99.90      -99.90      -99.90      -99.90      -99.90    
       -99.90      -99.90      -99.90      -99.90      -99.90      -99.90      -99.90      -99.90      -99.90      -99.90    
       -99.90      -99.90      -99.90      -99.90      -99.90      -99.90      -99.90      -99.90      -99.90      -99.90    
1
              HEAD IN LAYER   6 AT END OF TIME STEP  17 IN STRESS PERIOD    3
  ---------------------------------------------------------------------------

            1           2           3           4           5           6           7           8           9          10
           11          12          13          14          15          16          17          18          19          20
           21          22          23          24          25          26          27          28          29          30
           31          32          33          34          35          36          37          38          39          40
 ........................................................................................................................
   1    53.11       51.62       46.68       43.57       41.23      -99.90      -99.90      -99.90      -99.90      -99.90    
       -99.90      -99.90      -99.90      -99.90      -99.90      -99.90      -99.90      -99.90      -99.90      -99.90    
       -99.90      -99.90      -99.90      -99.90      -99.90      -99.90      -99.90      -99.90      -99.90      -99.90    
       -99.90      -99.90      -99.90      -99.90      -99.90      -99.90      -99.90      -99.90      -99.90      -99.90    
   2    51.62       50.34       45.68       42.94       40.78      -99.90      -99.90      -99.90      -99.90      -99.90    
       -99.90      -99.90      -99.90      -99.90      -99.90      -99.90      -99.90      -99.90      -99.90      -99.90    
       -99.90      -99.90      -99.90      -99.90      -99.90      -99.90      -99.90      -99.90      -99.90      -99.90    
       -99.90      -99.90      -99.90      -99.90      -99.90      -99.90      -99.90      -99.90      -99.90      -99.90    
   3    46.68       45.68       43.68       41.79      -99.90      -99.90      -99.90      -99.90      -99.90      -99.90    
       -99.90      -99.90      -99.90      -99.90      -99.90      -99.90      -99.90      -99.90      -99.90      -99.90    
       -99.90      -99.90      -99.90      -99.90      -99.90      -99.90      -99.90      -99.90      -99.90      -99.90    
       -99.90      -99.90      -99.90      -99.90      -99.90      -99.90      -99.90      -99.90      -99.90      -99.90    
   4    43.57       42.94       41.79      -99.90      -99.90      -99.90      -99.90      -99.90      -99.90      -99.90    
       -99.90      -99.90      -99.90      -99.90      -99.90      -99.90      -99.90      -99.90      -99.90      -99.90    
       -99.90      -99.90      -99.90      -99.90      -99.90      -99.90      -99.90      -99.90      -99.90      -99.90    
       -99.90      -99.90      -99.90      -99.90      -99.90      -99.90      -99.90      -99.90      -99.90      -99.90    
   5    41.23       40.78      -99.90      -99.90      -99.90      -99.90      -99.90      -99.90      -99.90      -99.90    
       -99.90      -99.90      -99.90      -99.90      -99.90      -99.90      -99.90      -99.90      -99.90      -99.90    
       -99.90      -99.90      -99.90      -99.90      -99.90      -99.90      -99.90      -99.90      -99.90      -99.90    
       -99.90      -99.90      -99.90      -99.90      -99.90      -99.90      -99.90      -99.90      -99.90      -99.90    
   6   -99.90      -99.90      -99.90      -99.90      -99.90      -99.90      -99.90      -99.90      -99.90      -99.90    
       -99.90      -99.90      -99.90      -99.90      -99.90      -99.90      -99.90      -99.90      -99.90      -99.90    
       -99.90      -99.90      -99.90      -99.90      -99.90      -99.90      -99.90      -99.90      -99.90      -99.90    
       -99.90      -99.90      -99.90      -99.90      -99.90      -99.90      -99.90      -99.90      -99.90      -99.90    
   7   -99.90      -99.90      -99.90      -99.90      -99.90      -99.90      -99.90      -99.90      -99.90      -99.90    
       -99.90      -99.90      -99.90      -99.90      -99.90      -99.90      -99.90      -99.90      -99.90      -99.90    
       -99.90      -99.90      -99.90      -99.90      -99.90      -99.90      -99.90      -99.90      -99.90      -99.90    
       -99.90      -99.90      -99.90      -99.90      -99.90      -99.90      -99.90      -99.90      -99.90      -99.90    
   8   -99.90      -99.90      -99.90      -99.90      -99.90      -99.90      -99.90      -99.90      -99.90      -99.90    
       -99.90      -99.90      -99.90      -99.90      -99.90      -99.90      -99.90      -99.90      -99.90      -99.90    
       -99.90      -99.90      -99.90      -99.90      -99.90      -99.90      -99.90      -99.90      -99.90      -99.90    
       -99.90      -99.90      -99.90      -99.90      -99.90      -99.90      -99.90      -99.90      -99.90      -99.90    
   9   -99.90      -99.90      -99.90      -99.90      -99.90      -99.90      -99.90      -99.90      -99.90      -99.90    
       -99.90      -99.90      -99.90      -99.90      -99.90      -99.90      -99.90      -99.90      -99.90      -99.90    
       -99.90      -99.90      -99.90      -99.90      -99.90      -99.90      -99.90      -99.90      -99.90      -99.90    
       -99.90      -99.90      -99.90      -99.90      -99.90      -99.90      -99.90      -99.90      -99.90      -99.90    
  10   -99.90      -99.90      -99.90      -99.90      -99.90      -99.90      -99.90      -99.90      -99.90      -99.90    
       -99.90      -99.90      -99.90      -99.90      -99.90      -99.90      -99.90      -99.90      -99.90      -99.90    
       -99.90      -99.90      -99.90      -99.90      -99.90      -99.90      -99.90      -99.90      -99.90      -99.90    
       -99.90      -99.90      -99.90      -99.90      -99.90      -99.90      -99.90      -99.90      -99.90      -99.90    
  11   -99.90      -99.90      -99.90      -99.90      -99.90      -99.90      -99.90      -99.90      -99.90      -99.90    
       -99.90      -99.90      -99.90      -99.90      -99.90      -99.90      -99.90      -99.90      -99.90      -99.90    
       -99.90      -99.90      -99.90      -99.90      -99.90      -99.90      -99.90      -99.90      -99.90      -99.90    
       -99.90      -99.90      -99.90      -99.90      -99.90      -99.90      -99.90      -99.90      -99.90      -99.90    
  12   -99.90      -99.90      -99.90      -99.90      -99.90      -99.90      -99.90      -99.90      -99.90      -99.90    
       -99.90      -99.90      -99.90      -99.90      -99.90      -99.90      -99.90      -99.90      -99.90      -99.90    
       -99.90      -99.90      -99.90      -99.90      -99.90      -99.90      -99.90      -99.90      -99.90      -99.90    
       -99.90      -99.90      -99.90      -99.90      -99.90      -99.90      -99.90      -99.90      -99.90      -99.90    
  13   -99.90      -99.90      -99.90      -99.90      -99.90      -99.90      -99.90      -99.90      -99.90      -99.90    
       -99.90      -99.90      -99.90      -99.90      -99.90      -99.90      -99.90      -99.90      -99.90      -99.90    
       -99.90      -99.90      -99.90      -99.90      -99.90      -99.90      -99.90      -99.90      -99.90      -99.90    
       -99.90      -99.90      -99.90      -99.90      -99.90      -99.90      -99.90      -99.90      -99.90      -99.90    
  14   -99.90      -99.90      -99.90      -99.90      -99.90      -99.90      -99.90      -99.90      -99.90      -99.90    
       -99.90      -99.90      -99.90      -99.90      -99.90      -99.90      -99.90      -99.90      -99.90      -99.90    
       -99.90      -99.90      -99.90      -99.90      -99.90      -99.90      -99.90      -99.90      -99.90      -99.90    
       -99.90      -99.90      -99.90      -99.90      -99.90      -99.90      -99.90      -99.90      -99.90      -99.90    
  15   -99.90      -99.90      -99.90      -99.90      -99.90      -99.90      -99.90      -99.90      -99.90      -99.90    
       -99.90      -99.90      -99.90      -99.90      -99.90      -99.90      -99.90      -99.90      -99.90      -99.90    
       -99.90      -99.90      -99.90      -99.90      -99.90      -99.90      -99.90      -99.90      -99.90      -99.90    
       -99.90      -99.90      -99.90      -99.90      -99.90      -99.90      -99.90      -99.90      -99.90      -99.90    
  16   -99.90      -99.90      -99.90      -99.90      -99.90      -99.90      -99.90      -99.90      -99.90      -99.90    
       -99.90      -99.90      -99.90      -99.90      -99.90      -99.90      -99.90      -99.90      -99.90      -99.90    
       -99.90      -99.90      -99.90      -99.90      -99.90      -99.90      -99.90      -99.90      -99.90      -99.90    
       -99.90      -99.90      -99.90      -99.90      -99.90      -99.90      -99.90      -99.90      -99.90      -99.90    
  17   -99.90      -99.90      -99.90      -99.90      -99.90      -99.90      -99.90      -99.90      -99.90      -99.90    
       -99.90      -99.90      -99.90      -99.90      -99.90      -99.90      -99.90      -99.90      -99.90      -99.90    
       -99.90      -99.90      -99.90      -99.90      -99.90      -99.90      -99.90      -99.90      -99.90      -99.90    
       -99.90      -99.90      -99.90      -99.90      -99.90      -99.90      -99.90      -99.90      -99.90      -99.90    
  18   -99.90      -99.90      -99.90      -99.90      -99.90      -99.90      -99.90      -99.90      -99.90      -99.90    
       -99.90      -99.90      -99.90      -99.90      -99.90      -99.90      -99.90      -99.90      -99.90      -99.90    
       -99.90      -99.90      -99.90      -99.90      -99.90      -99.90      -99.90      -99.90      -99.90      -99.90    
       -99.90      -99.90      -99.90      -99.90      -99.90      -99.90      -99.90      -99.90      -99.90      -99.90    
  19   -99.90      -99.90      -99.90      -99.90      -99.90      -99.90      -99.90      -99.90      -99.90      -99.90    
       -99.90      -99.90      -99.90      -99.90      -99.90      -99.90      -99.90      -99.90      -99.90      -99.90    
       -99.90      -99.90      -99.90      -99.90      -99.90      -99.90      -99.90      -99.90      -99.90      -99.90    
       -99.90      -99.90      -99.90      -99.90      -99.90      -99.90      -99.90      -99.90      -99.90      -99.90    
  20   -99.90      -99.90      -99.90      -99.90      -99.90      -99.90      -99.90      -99.90      -99.90      -99.90    
       -99.90      -99.90      -99.90      -99.90      -99.90      -99.90      -99.90      -99.90      -99.90      -99.90    
       -99.90      -99.90      -99.90      -99.90      -99.90      -99.90      -99.90      -99.90      -99.90      -99.90    
       -99.90      -99.90      -99.90      -99.90      -99.90      -99.90      -99.90      -99.90      -99.90      -99.90    
  21   -99.90      -99.90      -99.90      -99.90      -99.90      -99.90      -99.90      -99.90      -99.90      -99.90    
       -99.90      -99.90      -99.90      -99.90      -99.90      -99.90      -99.90      -99.90      -99.90      -99.90    
       -99.90      -99.90      -99.90      -99.90      -99.90      -99.90      -99.90      -99.90      -99.90      -99.90    
       -99.90      -99.90      -99.90      -99.90      -99.90      -99.90      -99.90      -99.90      -99.90      -99.90    
  22   -99.90      -99.90      -99.90      -99.90      -99.90      -99.90      -99.90      -99.90      -99.90      -99.90    
       -99.90      -99.90      -99.90      -99.90      -99.90      -99.90      -99.90      -99.90      -99.90      -99.90    
       -99.90      -99.90      -99.90      -99.90      -99.90      -99.90      -99.90      -99.90      -99.90      -99.90    
       -99.90      -99.90      -99.90      -99.90      -99.90      -99.90      -99.90      -99.90      -99.90      -99.90    
  23   -99.90      -99.90      -99.90      -99.90      -99.90      -99.90      -99.90      -99.90      -99.90      -99.90    
       -99.90      -99.90      -99.90      -99.90      -99.90      -99.90      -99.90      -99.90      -99.90      -99.90    
       -99.90      -99.90      -99.90      -99.90      -99.90      -99.90      -99.90      -99.90      -99.90      -99.90    
       -99.90      -99.90      -99.90      -99.90      -99.90      -99.90      -99.90      -99.90      -99.90      -99.90    
  24   -99.90      -99.90      -99.90      -99.90      -99.90      -99.90      -99.90      -99.90      -99.90      -99.90    
       -99.90      -99.90      -99.90      -99.90      -99.90      -99.90      -99.90      -99.90      -99.90      -99.90    
       -99.90      -99.90      -99.90      -99.90      -99.90      -99.90      -99.90      -99.90      -99.90      -99.90    
       -99.90      -99.90      -99.90      -99.90      -99.90      -99.90      -99.90      -99.90      -99.90      -99.90    
  25   -99.90      -99.90      -99.90      -99.90      -99.90      -99.90      -99.90      -99.90      -99.90      -99.90    
       -99.90      -99.90      -99.90      -99.90      -99.90      -99.90      -99.90      -99.90      -99.90      -99.90    
       -99.90      -99.90      -99.90      -99.90      -99.90      -99.90      -99.90      -99.90      -99.90      -99.90    
       -99.90      -99.90      -99.90      -99.90      -99.90      -99.90      -99.90      -99.90      -99.90      -99.90    
  26   -99.90      -99.90      -99.90      -99.90      -99.90      -99.90      -99.90      -99.90      -99.90      -99.90    
       -99.90      -99.90      -99.90      -99.90      -99.90      -99.90      -99.90      -99.90      -99.90      -99.90    
       -99.90      -99.90      -99.90      -99.90      -99.90      -99.90      -99.90      -99.90      -99.90      -99.90    
       -99.90      -99.90      -99.90      -99.90      -99.90      -99.90      -99.90      -99.90      -99.90      -99.90    
  27   -99.90      -99.90      -99.90      -99.90      -99.90      -99.90      -99.90      -99.90      -99.90      -99.90    
       -99.90      -99.90      -99.90      -99.90      -99.90      -99.90      -99.90      -99.90      -99.90      -99.90    
       -99.90      -99.90      -99.90      -99.90      -99.90      -99.90      -99.90      -99.90      -99.90      -99.90    
       -99.90      -99.90      -99.90      -99.90      -99.90      -99.90      -99.90      -99.90      -99.90      -99.90    
  28   -99.90      -99.90      -99.90      -99.90      -99.90      -99.90      -99.90      -99.90      -99.90      -99.90    
       -99.90      -99.90      -99.90      -99.90      -99.90      -99.90      -99.90      -99.90      -99.90      -99.90    
       -99.90      -99.90      -99.90      -99.90      -99.90      -99.90      -99.90      -99.90      -99.90      -99.90    
       -99.90      -99.90      -99.90      -99.90      -99.90      -99.90      -99.90      -99.90      -99.90      -99.90    
  29   -99.90      -99.90      -99.90      -99.90      -99.90      -99.90      -99.90      -99.90      -99.90      -99.90    
       -99.90      -99.90      -99.90      -99.90      -99.90      -99.90      -99.90      -99.90      -99.90      -99.90    
       -99.90      -99.90      -99.90      -99.90      -99.90      -99.90      -99.90      -99.90      -99.90      -99.90    
       -99.90      -99.90      -99.90      -99.90      -99.90      -99.90      -99.90      -99.90      -99.90      -99.90    
  30   -99.90      -99.90      -99.90      -99.90      -99.90      -99.90      -99.90      -99.90      -99.90      -99.90    
       -99.90      -99.90      -99.90      -99.90      -99.90      -99.90      -99.90      -99.90      -99.90      -99.90    
       -99.90      -99.90      -99.90      -99.90      -99.90      -99.90      -99.90      -99.90      -99.90      -99.90    
       -99.90      -99.90      -99.90      -99.90      -99.90      -99.90      -99.90      -99.90      -99.90      -99.90    
  31   -99.90      -99.90      -99.90      -99.90      -99.90      -99.90      -99.90      -99.90      -99.90      -99.90    
       -99.90      -99.90      -99.90      -99.90      -99.90      -99.90      -99.90      -99.90      -99.90      -99.90    
       -99.90      -99.90      -99.90      -99.90      -99.90      -99.90      -99.90      -99.90      -99.90      -99.90    
       -99.90      -99.90      -99.90      -99.90      -99.90      -99.90      -99.90      -99.90      -99.90      -99.90    
  32   -99.90      -99.90      -99.90      -99.90      -99.90      -99.90      -99.90      -99.90      -99.90      -99.90    
       -99.90      -99.90      -99.90      -99.90      -99.90      -99.90      -99.90      -99.90      -99.90      -99.90    
       -99.90      -99.90      -99.90      -99.90      -99.90      -99.90      -99.90      -99.90      -99.90      -99.90    
       -99.90      -99.90      -99.90      -99.90      -99.90      -99.90      -99.90      -99.90      -99.90      -99.90    
  33   -99.90      -99.90      -99.90      -99.90      -99.90      -99.90      -99.90      -99.90      -99.90      -99.90    
       -99.90      -99.90      -99.90      -99.90      -99.90      -99.90      -99.90      -99.90      -99.90      -99.90    
       -99.90      -99.90      -99.90      -99.90      -99.90      -99.90      -99.90      -99.90      -99.90      -99.90    
       -99.90      -99.90      -99.90      -99.90      -99.90      -99.90      -99.90      -99.90      -99.90      -99.90    
  34   -99.90      -99.90      -99.90      -99.90      -99.90      -99.90      -99.90      -99.90      -99.90      -99.90    
       -99.90      -99.90      -99.90      -99.90      -99.90      -99.90      -99.90      -99.90      -99.90      -99.90    
       -99.90      -99.90      -99.90      -99.90      -99.90      -99.90      -99.90      -99.90      -99.90      -99.90    
       -99.90      -99.90      -99.90      -99.90      -99.90      -99.90      -99.90      -99.90      -99.90      -99.90    
  35   -99.90      -99.90      -99.90      -99.90      -99.90      -99.90      -99.90      -99.90      -99.90      -99.90    
       -99.90      -99.90      -99.90      -99.90      -99.90      -99.90      -99.90      -99.90      -99.90      -99.90    
       -99.90      -99.90      -99.90      -99.90      -99.90      -99.90      -99.90      -99.90      -99.90      -99.90    
       -99.90      -99.90      -99.90      -99.90      -99.90      -99.90      -99.90      -99.90      -99.90      -99.90    
  36   -99.90      -99.90      -99.90      -99.90      -99.90      -99.90      -99.90      -99.90      -99.90      -99.90    
       -99.90      -99.90      -99.90      -99.90      -99.90      -99.90      -99.90      -99.90      -99.90      -99.90    
       -99.90      -99.90      -99.90      -99.90      -99.90      -99.90      -99.90      -99.90      -99.90      -99.90    
       -99.90      -99.90      -99.90      -99.90      -99.90      -99.90      -99.90      -99.90      -99.90      -99.90    
  37   -99.90      -99.90      -99.90      -99.90      -99.90      -99.90      -99.90      -99.90      -99.90      -99.90    
       -99.90      -99.90      -99.90      -99.90      -99.90      -99.90      -99.90      -99.90      -99.90      -99.90    
       -99.90      -99.90      -99.90      -99.90      -99.90      -99.90      -99.90      -99.90      -99.90      -99.90    
       -99.90      -99.90      -99.90      -99.90      -99.90      -99.90      -99.90      -99.90      -99.90      -99.90    
  38   -99.90      -99.90      -99.90      -99.90      -99.90      -99.90      -99.90      -99.90      -99.90      -99.90    
       -99.90      -99.90      -99.90      -99.90      -99.90      -99.90      -99.90      -99.90      -99.90      -99.90    
       -99.90      -99.90      -99.90      -99.90      -99.90      -99.90      -99.90      -99.90      -99.90      -99.90    
       -99.90      -99.90      -99.90      -99.90      -99.90      -99.90      -99.90      -99.90      -99.90      -99.90    
  39   -99.90      -99.90      -99.90      -99.90      -99.90      -99.90      -99.90      -99.90      -99.90      -99.90    
       -99.90      -99.90      -99.90      -99.90      -99.90      -99.90      -99.90      -99.90      -99.90      -99.90    
       -99.90      -99.90      -99.90      -99.90      -99.90      -99.90      -99.90      -99.90      -99.90      -99.90    
       -99.90      -99.90      -99.90      -99.90      -99.90      -99.90      -99.90      -99.90      -99.90      -99.90    
  40   -99.90      -99.90      -99.90      -99.90      -99.90      -99.90      -99.90      -99.90      -99.90      -99.90    
       -99.90      -99.90      -99.90      -99.90      -99.90      -99.90      -99.90      -99.90      -99.90      -99.90    
       -99.90      -99.90      -99.90      -99.90      -99.90      -99.90      -99.90      -99.90      -99.90      -99.90    
       -99.90      -99.90      -99.90      -99.90      -99.90      -99.90      -99.90      -99.90      -99.90      -99.90    
1
              HEAD IN LAYER   7 AT END OF TIME STEP  17 IN STRESS PERIOD    3
  ---------------------------------------------------------------------------

            1           2           3           4           5           6           7           8           9          10
           11          12          13          14          15          16          17          18          19          20
           21          22          23          24          25          26          27          28          29          30
           31          32          33          34          35          36          37          38          39          40
 ........................................................................................................................
   1    52.37       50.85       46.55       43.53       41.21       39.27       37.64       36.21      -99.90      -99.90    
       -99.90      -99.90      -99.90      -99.90      -99.90      -99.90      -99.90      -99.90      -99.90      -99.90    
       -99.90      -99.90      -99.90      -99.90      -99.90      -99.90      -99.90      -99.90      -99.90      -99.90    
       -99.90      -99.90      -99.90      -99.90      -99.90      -99.90      -99.90      -99.90      -99.90      -99.90    
   2    50.85       49.53       45.57       42.90       40.77       38.96       37.41       36.02      -99.90      -99.90    
       -99.90      -99.90      -99.90      -99.90      -99.90      -99.90      -99.90      -99.90      -99.90      -99.90    
       -99.90      -99.90      -99.90      -99.90      -99.90      -99.90      -99.90      -99.90      -99.90      -99.90    
       -99.90      -99.90      -99.90      -99.90      -99.90      -99.90      -99.90      -99.90      -99.90      -99.90    
   3    46.55       45.57       43.63       41.75       39.95       38.39       36.97       35.63      -99.90      -99.90    
       -99.90      -99.90      -99.90      -99.90      -99.90      -99.90      -99.90      -99.90      -99.90      -99.90    
       -99.90      -99.90      -99.90      -99.90      -99.90      -99.90      -99.90      -99.90      -99.90      -99.90    
       -99.90      -99.90      -99.90      -99.90      -99.90      -99.90      -99.90      -99.90      -99.90      -99.90    
   4    43.53       42.90       41.75       40.35       38.96       37.63       36.39      -99.90      -99.90      -99.90    
       -99.90      -99.90      -99.90      -99.90      -99.90      -99.90      -99.90      -99.90      -99.90      -99.90    
       -99.90      -99.90      -99.90      -99.90      -99.90      -99.90      -99.90      -99.90      -99.90      -99.90    
       -99.90      -99.90      -99.90      -99.90      -99.90      -99.90      -99.90      -99.90      -99.90      -99.90    
   5    41.21       40.77       39.95       38.96       37.87       36.76       35.68      -99.90      -99.90      -99.90    
       -99.90      -99.90      -99.90      -99.90      -99.90      -99.90      -99.90      -99.90      -99.90      -99.90    
       -99.90      -99.90      -99.90      -99.90      -99.90      -99.90      -99.90      -99.90      -99.90      -99.90    
       -99.90      -99.90      -99.90      -99.90      -99.90      -99.90      -99.90      -99.90      -99.90      -99.90    
   6    39.27       38.96       38.39       37.63       36.76       35.84      -99.90      -99.90      -99.90      -99.90    
       -99.90      -99.90      -99.90      -99.90      -99.90      -99.90      -99.90      -99.90      -99.90      -99.90    
       -99.90      -99.90      -99.90      -99.90      -99.90      -99.90      -99.90      -99.90      -99.90      -99.90    
       -99.90      -99.90      -99.90      -99.90      -99.90      -99.90      -99.90      -99.90      -99.90      -99.90    
   7    37.64       37.41       36.97       36.39       35.68      -99.90      -99.90      -99.90      -99.90      -99.90    
       -99.90      -99.90      -99.90      -99.90      -99.90      -99.90      -99.90      -99.90      -99.90      -99.90    
       -99.90      -99.90      -99.90      -99.90      -99.90      -99.90      -99.90      -99.90      -99.90      -99.90    
       -99.90      -99.90      -99.90      -99.90      -99.90      -99.90      -99.90      -99.90      -99.90      -99.90    
   8    36.21       36.02       35.63      -99.90      -99.90      -99.90      -99.90      -99.90      -99.90      -99.90    
       -99.90      -99.90      -99.90      -99.90      -99.90      -99.90      -99.90      -99.90      -99.90      -99.90    
       -99.90      -99.90      -99.90      -99.90      -99.90      -99.90      -99.90      -99.90      -99.90      -99.90    
       -99.90      -99.90      -99.90      -99.90      -99.90      -99.90      -99.90      -99.90      -99.90      -99.90    
   9   -99.90      -99.90      -99.90      -99.90      -99.90      -99.90      -99.90      -99.90      -99.90      -99.90    
       -99.90      -99.90      -99.90      -99.90      -99.90      -99.90      -99.90      -99.90      -99.90      -99.90    
       -99.90      -99.90      -99.90      -99.90      -99.90      -99.90      -99.90      -99.90      -99.90      -99.90    
       -99.90      -99.90      -99.90      -99.90      -99.90      -99.90      -99.90      -99.90      -99.90      -99.90    
  10   -99.90      -99.90      -99.90      -99.90      -99.90      -99.90      -99.90      -99.90      -99.90      -99.90    
       -99.90      -99.90      -99.90      -99.90      -99.90      -99.90      -99.90      -99.90      -99.90      -99.90    
       -99.90      -99.90      -99.90      -99.90      -99.90      -99.90      -99.90      -99.90      -99.90      -99.90    
       -99.90      -99.90      -99.90      -99.90      -99.90      -99.90      -99.90      -99.90      -99.90      -99.90    
  11   -99.90      -99.90      -99.90      -99.90      -99.90      -99.90      -99.90      -99.90      -99.90      -99.90    
       -99.90      -99.90      -99.90      -99.90      -99.90      -99.90      -99.90      -99.90      -99.90      -99.90    
       -99.90      -99.90      -99.90      -99.90      -99.90      -99.90      -99.90      -99.90      -99.90      -99.90    
       -99.90      -99.90      -99.90      -99.90      -99.90      -99.90      -99.90      -99.90      -99.90      -99.90    
  12   -99.90      -99.90      -99.90      -99.90      -99.90      -99.90      -99.90      -99.90      -99.90      -99.90    
       -99.90      -99.90      -99.90      -99.90      -99.90      -99.90      -99.90      -99.90      -99.90      -99.90    
       -99.90      -99.90      -99.90      -99.90      -99.90      -99.90      -99.90      -99.90      -99.90      -99.90    
       -99.90      -99.90      -99.90      -99.90      -99.90      -99.90      -99.90      -99.90      -99.90      -99.90    
  13   -99.90      -99.90      -99.90      -99.90      -99.90      -99.90      -99.90      -99.90      -99.90      -99.90    
       -99.90      -99.90      -99.90      -99.90      -99.90      -99.90      -99.90      -99.90      -99.90      -99.90    
       -99.90      -99.90      -99.90      -99.90      -99.90      -99.90      -99.90      -99.90      -99.90      -99.90    
       -99.90      -99.90      -99.90      -99.90      -99.90      -99.90      -99.90      -99.90      -99.90      -99.90    
  14   -99.90      -99.90      -99.90      -99.90      -99.90      -99.90      -99.90      -99.90      -99.90      -99.90    
       -99.90      -99.90      -99.90      -99.90      -99.90      -99.90      -99.90      -99.90      -99.90      -99.90    
       -99.90      -99.90      -99.90      -99.90      -99.90      -99.90      -99.90      -99.90      -99.90      -99.90    
       -99.90      -99.90      -99.90      -99.90      -99.90      -99.90      -99.90      -99.90      -99.90      -99.90    
  15   -99.90      -99.90      -99.90      -99.90      -99.90      -99.90      -99.90      -99.90      -99.90      -99.90    
       -99.90      -99.90      -99.90      -99.90      -99.90      -99.90      -99.90      -99.90      -99.90      -99.90    
       -99.90      -99.90      -99.90      -99.90      -99.90      -99.90      -99.90      -99.90      -99.90      -99.90    
       -99.90      -99.90      -99.90      -99.90      -99.90      -99.90      -99.90      -99.90      -99.90      -99.90    
  16   -99.90      -99.90      -99.90      -99.90      -99.90      -99.90      -99.90      -99.90      -99.90      -99.90    
       -99.90      -99.90      -99.90      -99.90      -99.90      -99.90      -99.90      -99.90      -99.90      -99.90    
       -99.90      -99.90      -99.90      -99.90      -99.90      -99.90      -99.90      -99.90      -99.90      -99.90    
       -99.90      -99.90      -99.90      -99.90      -99.90      -99.90      -99.90      -99.90      -99.90      -99.90    
  17   -99.90      -99.90      -99.90      -99.90      -99.90      -99.90      -99.90      -99.90      -99.90      -99.90    
       -99.90      -99.90      -99.90      -99.90      -99.90      -99.90      -99.90      -99.90      -99.90      -99.90    
       -99.90      -99.90      -99.90      -99.90      -99.90      -99.90      -99.90      -99.90      -99.90      -99.90    
       -99.90      -99.90      -99.90      -99.90      -99.90      -99.90      -99.90      -99.90      -99.90      -99.90    
  18   -99.90      -99.90      -99.90      -99.90      -99.90      -99.90      -99.90      -99.90      -99.90      -99.90    
       -99.90      -99.90      -99.90      -99.90      -99.90      -99.90      -99.90      -99.90      -99.90      -99.90    
       -99.90      -99.90      -99.90      -99.90      -99.90      -99.90      -99.90      -99.90      -99.90      -99.90    
       -99.90      -99.90      -99.90      -99.90      -99.90      -99.90      -99.90      -99.90      -99.90      -99.90    
  19   -99.90      -99.90      -99.90      -99.90      -99.90      -99.90      -99.90      -99.90      -99.90      -99.90    
       -99.90      -99.90      -99.90      -99.90      -99.90      -99.90      -99.90      -99.90      -99.90      -99.90    
       -99.90      -99.90      -99.90      -99.90      -99.90      -99.90      -99.90      -99.90      -99.90      -99.90    
       -99.90      -99.90      -99.90      -99.90      -99.90      -99.90      -99.90      -99.90      -99.90      -99.90    
  20   -99.90      -99.90      -99.90      -99.90      -99.90      -99.90      -99.90      -99.90      -99.90      -99.90    
       -99.90      -99.90      -99.90      -99.90      -99.90      -99.90      -99.90      -99.90      -99.90      -99.90    
       -99.90      -99.90      -99.90      -99.90      -99.90      -99.90      -99.90      -99.90      -99.90      -99.90    
       -99.90      -99.90      -99.90      -99.90      -99.90      -99.90      -99.90      -99.90      -99.90      -99.90    
  21   -99.90      -99.90      -99.90      -99.90      -99.90      -99.90      -99.90      -99.90      -99.90      -99.90    
       -99.90      -99.90      -99.90      -99.90      -99.90      -99.90      -99.90      -99.90      -99.90      -99.90    
       -99.90      -99.90      -99.90      -99.90      -99.90      -99.90      -99.90      -99.90      -99.90      -99.90    
       -99.90      -99.90      -99.90      -99.90      -99.90      -99.90      -99.90      -99.90      -99.90      -99.90    
  22   -99.90      -99.90      -99.90      -99.90      -99.90      -99.90      -99.90      -99.90      -99.90      -99.90    
       -99.90      -99.90      -99.90      -99.90      -99.90      -99.90      -99.90      -99.90      -99.90      -99.90    
       -99.90      -99.90      -99.90      -99.90      -99.90      -99.90      -99.90      -99.90      -99.90      -99.90    
       -99.90      -99.90      -99.90      -99.90      -99.90      -99.90      -99.90      -99.90      -99.90      -99.90    
  23   -99.90      -99.90      -99.90      -99.90      -99.90      -99.90      -99.90      -99.90      -99.90      -99.90    
       -99.90      -99.90      -99.90      -99.90      -99.90      -99.90      -99.90      -99.90      -99.90      -99.90    
       -99.90      -99.90      -99.90      -99.90      -99.90      -99.90      -99.90      -99.90      -99.90      -99.90    
       -99.90      -99.90      -99.90      -99.90      -99.90      -99.90      -99.90      -99.90      -99.90      -99.90    
  24   -99.90      -99.90      -99.90      -99.90      -99.90      -99.90      -99.90      -99.90      -99.90      -99.90    
       -99.90      -99.90      -99.90      -99.90      -99.90      -99.90      -99.90      -99.90      -99.90      -99.90    
       -99.90      -99.90      -99.90      -99.90      -99.90      -99.90      -99.90      -99.90      -99.90      -99.90    
       -99.90      -99.90      -99.90      -99.90      -99.90      -99.90      -99.90      -99.90      -99.90      -99.90    
  25   -99.90      -99.90      -99.90      -99.90      -99.90      -99.90      -99.90      -99.90      -99.90      -99.90    
       -99.90      -99.90      -99.90      -99.90      -99.90      -99.90      -99.90      -99.90      -99.90      -99.90    
       -99.90      -99.90      -99.90      -99.90      -99.90      -99.90      -99.90      -99.90      -99.90      -99.90    
       -99.90      -99.90      -99.90      -99.90      -99.90      -99.90      -99.90      -99.90      -99.90      -99.90    
  26   -99.90      -99.90      -99.90      -99.90      -99.90      -99.90      -99.90      -99.90      -99.90      -99.90    
       -99.90      -99.90      -99.90      -99.90      -99.90      -99.90      -99.90      -99.90      -99.90      -99.90    
       -99.90      -99.90      -99.90      -99.90      -99.90      -99.90      -99.90      -99.90      -99.90      -99.90    
       -99.90      -99.90      -99.90      -99.90      -99.90      -99.90      -99.90      -99.90      -99.90      -99.90    
  27   -99.90      -99.90      -99.90      -99.90      -99.90      -99.90      -99.90      -99.90      -99.90      -99.90    
       -99.90      -99.90      -99.90      -99.90      -99.90      -99.90      -99.90      -99.90      -99.90      -99.90    
       -99.90      -99.90      -99.90      -99.90      -99.90      -99.90      -99.90      -99.90      -99.90      -99.90    
       -99.90      -99.90      -99.90      -99.90      -99.90      -99.90      -99.90      -99.90      -99.90      -99.90    
  28   -99.90      -99.90      -99.90      -99.90      -99.90      -99.90      -99.90      -99.90      -99.90      -99.90    
       -99.90      -99.90      -99.90      -99.90      -99.90      -99.90      -99.90      -99.90      -99.90      -99.90    
       -99.90      -99.90      -99.90      -99.90      -99.90      -99.90      -99.90      -99.90      -99.90      -99.90    
       -99.90      -99.90      -99.90      -99.90      -99.90      -99.90      -99.90      -99.90      -99.90      -99.90    
  29   -99.90      -99.90      -99.90      -99.90      -99.90      -99.90      -99.90      -99.90      -99.90      -99.90    
       -99.90      -99.90      -99.90      -99.90      -99.90      -99.90      -99.90      -99.90      -99.90      -99.90    
       -99.90      -99.90      -99.90      -99.90      -99.90      -99.90      -99.90      -99.90      -99.90      -99.90    
       -99.90      -99.90      -99.90      -99.90      -99.90      -99.90      -99.90      -99.90      -99.90      -99.90    
  30   -99.90      -99.90      -99.90      -99.90      -99.90      -99.90      -99.90      -99.90      -99.90      -99.90    
       -99.90      -99.90      -99.90      -99.90      -99.90      -99.90      -99.90      -99.90      -99.90      -99.90    
       -99.90      -99.90      -99.90      -99.90      -99.90      -99.90      -99.90      -99.90      -99.90      -99.90    
       -99.90      -99.90      -99.90      -99.90      -99.90      -99.90      -99.90      -99.90      -99.90      -99.90    
  31   -99.90      -99.90      -99.90      -99.90      -99.90      -99.90      -99.90      -99.90      -99.90      -99.90    
       -99.90      -99.90      -99.90      -99.90      -99.90      -99.90      -99.90      -99.90      -99.90      -99.90    
       -99.90      -99.90      -99.90      -99.90      -99.90      -99.90      -99.90      -99.90      -99.90      -99.90    
       -99.90      -99.90      -99.90      -99.90      -99.90      -99.90      -99.90      -99.90      -99.90      -99.90    
  32   -99.90      -99.90      -99.90      -99.90      -99.90      -99.90      -99.90      -99.90      -99.90      -99.90    
       -99.90      -99.90      -99.90      -99.90      -99.90      -99.90      -99.90      -99.90      -99.90      -99.90    
       -99.90      -99.90      -99.90      -99.90      -99.90      -99.90      -99.90      -99.90      -99.90      -99.90    
       -99.90      -99.90      -99.90      -99.90      -99.90      -99.90      -99.90      -99.90      -99.90      -99.90    
  33   -99.90      -99.90      -99.90      -99.90      -99.90      -99.90      -99.90      -99.90      -99.90      -99.90    
       -99.90      -99.90      -99.90      -99.90      -99.90      -99.90      -99.90      -99.90      -99.90      -99.90    
       -99.90      -99.90      -99.90      -99.90      -99.90      -99.90      -99.90      -99.90      -99.90      -99.90    
       -99.90      -99.90      -99.90      -99.90      -99.90      -99.90      -99.90      -99.90      -99.90      -99.90    
  34   -99.90      -99.90      -99.90      -99.90      -99.90      -99.90      -99.90      -99.90      -99.90      -99.90    
       -99.90      -99.90      -99.90      -99.90      -99.90      -99.90      -99.90      -99.90      -99.90      -99.90    
       -99.90      -99.90      -99.90      -99.90      -99.90      -99.90      -99.90      -99.90      -99.90      -99.90    
       -99.90      -99.90      -99.90      -99.90      -99.90      -99.90      -99.90      -99.90      -99.90      -99.90    
  35   -99.90      -99.90      -99.90      -99.90      -99.90      -99.90      -99.90      -99.90      -99.90      -99.90    
       -99.90      -99.90      -99.90      -99.90      -99.90      -99.90      -99.90      -99.90      -99.90      -99.90    
       -99.90      -99.90      -99.90      -99.90      -99.90      -99.90      -99.90      -99.90      -99.90      -99.90    
       -99.90      -99.90      -99.90      -99.90      -99.90      -99.90      -99.90      -99.90      -99.90      -99.90    
  36   -99.90      -99.90      -99.90      -99.90      -99.90      -99.90      -99.90      -99.90      -99.90      -99.90    
       -99.90      -99.90      -99.90      -99.90      -99.90      -99.90      -99.90      -99.90      -99.90      -99.90    
       -99.90      -99.90      -99.90      -99.90      -99.90      -99.90      -99.90      -99.90      -99.90      -99.90    
       -99.90      -99.90      -99.90      -99.90      -99.90      -99.90      -99.90      -99.90      -99.90      -99.90    
  37   -99.90      -99.90      -99.90      -99.90      -99.90      -99.90      -99.90      -99.90      -99.90      -99.90    
       -99.90      -99.90      -99.90      -99.90      -99.90      -99.90      -99.90      -99.90      -99.90      -99.90    
       -99.90      -99.90      -99.90      -99.90      -99.90      -99.90      -99.90      -99.90      -99.90      -99.90    
       -99.90      -99.90      -99.90      -99.90      -99.90      -99.90      -99.90      -99.90      -99.90      -99.90    
  38   -99.90      -99.90      -99.90      -99.90      -99.90      -99.90      -99.90      -99.90      -99.90      -99.90    
       -99.90      -99.90      -99.90      -99.90      -99.90      -99.90      -99.90      -99.90      -99.90      -99.90    
       -99.90      -99.90      -99.90      -99.90      -99.90      -99.90      -99.90      -99.90      -99.90      -99.90    
       -99.90      -99.90      -99.90      -99.90      -99.90      -99.90      -99.90      -99.90      -99.90      -99.90    
  39   -99.90      -99.90      -99.90      -99.90      -99.90      -99.90      -99.90      -99.90      -99.90      -99.90    
       -99.90      -99.90      -99.90      -99.90      -99.90      -99.90      -99.90      -99.90      -99.90      -99.90    
       -99.90      -99.90      -99.90      -99.90      -99.90      -99.90      -99.90      -99.90      -99.90      -99.90    
       -99.90      -99.90      -99.90      -99.90      -99.90      -99.90      -99.90      -99.90      -99.90      -99.90    
  40   -99.90      -99.90      -99.90      -99.90      -99.90      -99.90      -99.90      -99.90      -99.90      -99.90    
       -99.90      -99.90      -99.90      -99.90      -99.90      -99.90      -99.90      -99.90      -99.90      -99.90    
       -99.90      -99.90      -99.90      -99.90      -99.90      -99.90      -99.90      -99.90      -99.90      -99.90    
       -99.90      -99.90      -99.90      -99.90      -99.90      -99.90      -99.90      -99.90      -99.90      -99.90    
1
              HEAD IN LAYER   8 AT END OF TIME STEP  17 IN STRESS PERIOD    3
  ---------------------------------------------------------------------------

            1           2           3           4           5           6           7           8           9          10
           11          12          13          14          15          16          17          18          19          20
           21          22          23          24          25          26          27          28          29          30
           31          32          33          34          35          36          37          38          39          40
 ........................................................................................................................
   1    51.73       50.22       46.42       43.49       41.19       39.26       37.63       36.20       34.91       33.80    
        32.80       31.90       31.10      -99.90      -99.90      -99.90      -99.90      -99.90      -99.90      -99.90    
       -99.90      -99.90      -99.90      -99.90      -99.90      -99.90      -99.90      -99.90      -99.90      -99.90    
       -99.90      -99.90      -99.90      -99.90      -99.90      -99.90      -99.90      -99.90      -99.90      -99.90    
   2    50.22       48.89       45.45       42.87       40.75       38.95       37.40       36.02       34.78       33.69    
        32.71       31.82       31.04      -99.90      -99.90      -99.90      -99.90      -99.90      -99.90      -99.90    
       -99.90      -99.90      -99.90      -99.90      -99.90      -99.90      -99.90      -99.90      -99.90      -99.90    
       -99.90      -99.90      -99.90      -99.90      -99.90      -99.90      -99.90      -99.90      -99.90      -99.90    
   3    46.42       45.45       43.59       41.72       39.95       38.38       36.96       35.65       34.51       33.47    
        32.53       31.67       30.91      -99.90      -99.90      -99.90      -99.90      -99.90      -99.90      -99.90    
       -99.90      -99.90      -99.90      -99.90      -99.90      -99.90      -99.90      -99.90      -99.90      -99.90    
       -99.90      -99.90      -99.90      -99.90      -99.90      -99.90      -99.90      -99.90      -99.90      -99.90    
   4    43.49       42.87       41.72       40.34       38.95       37.63       36.38       35.21       34.14       33.17    
        32.27       31.46       30.72      -99.90      -99.90      -99.90      -99.90      -99.90      -99.90      -99.90    
       -99.90      -99.90      -99.90      -99.90      -99.90      -99.90      -99.90      -99.90      -99.90      -99.90    
       -99.90      -99.90      -99.90      -99.90      -99.90      -99.90      -99.90      -99.90      -99.90      -99.90    
   5    41.19       40.75       39.95       38.95       37.86       36.76       35.68       34.64       33.68       32.79    
        31.96       31.19       30.47      -99.90      -99.90      -99.90      -99.90      -99.90      -99.90      -99.90    
       -99.90      -99.90      -99.90      -99.90      -99.90      -99.90      -99.90      -99.90      -99.90      -99.90    
       -99.90      -99.90      -99.90      -99.90      -99.90      -99.90      -99.90      -99.90      -99.90      -99.90    
   6    39.26       38.95       38.38       37.63       36.76       35.84       34.91       34.02       33.16       32.35    
        31.59       30.89      -99.90      -99.90      -99.90      -99.90      -99.90      -99.90      -99.90      -99.90    
       -99.90      -99.90      -99.90      -99.90      -99.90      -99.90      -99.90      -99.90      -99.90      -99.90    
       -99.90      -99.90      -99.90      -99.90      -99.90      -99.90      -99.90      -99.90      -99.90      -99.90    
   7    37.63       37.40       36.96       36.38       35.68       34.91       34.14       33.36       32.61       31.88    
        31.19       30.52      -99.90      -99.90      -99.90      -99.90      -99.90      -99.90      -99.90      -99.90    
       -99.90      -99.90      -99.90      -99.90      -99.90      -99.90      -99.90      -99.90      -99.90      -99.90    
       -99.90      -99.90      -99.90      -99.90      -99.90      -99.90      -99.90      -99.90      -99.90      -99.90    
   8    36.20       36.02       35.65       35.21       34.64       34.02       33.36       32.70       32.03       31.39    
        30.78      -99.90      -99.90      -99.90      -99.90      -99.90      -99.90      -99.90      -99.90      -99.90    
       -99.90      -99.90      -99.90      -99.90      -99.90      -99.90      -99.90      -99.90      -99.90      -99.90    
       -99.90      -99.90      -99.90      -99.90      -99.90      -99.90      -99.90      -99.90      -99.90      -99.90    
   9    34.91       34.78       34.51       34.14       33.68       33.16       32.61       32.03       31.46       30.90    
       -99.90      -99.90      -99.90      -99.90      -99.90      -99.90      -99.90      -99.90      -99.90      -99.90    
       -99.90      -99.90      -99.90      -99.90      -99.90      -99.90      -99.90      -99.90      -99.90      -99.90    
       -99.90      -99.90      -99.90      -99.90      -99.90      -99.90      -99.90      -99.90      -99.90      -99.90    
  10    33.80       33.69       33.47       33.17       32.79       32.35       31.88       31.39       30.90      -99.90    
       -99.90      -99.90      -99.90      -99.90      -99.90      -99.90      -99.90      -99.90      -99.90      -99.90    
       -99.90      -99.90      -99.90      -99.90      -99.90      -99.90      -99.90      -99.90      -99.90      -99.90    
       -99.90      -99.90      -99.90      -99.90      -99.90      -99.90      -99.90      -99.90      -99.90      -99.90    
  11    32.80       32.71       32.53       32.27       31.96       31.59       31.19       30.78      -99.90      -99.90    
       -99.90      -99.90      -99.90      -99.90      -99.90      -99.90      -99.90      -99.90      -99.90      -99.90    
       -99.90      -99.90      -99.90      -99.90      -99.90      -99.90      -99.90      -99.90      -99.90      -99.90    
       -99.90      -99.90      -99.90      -99.90      -99.90      -99.90      -99.90      -99.90      -99.90      -99.90    
  12    31.90       31.82       31.67       31.46       31.19       30.89       30.52      -99.90      -99.90      -99.90    
       -99.90      -99.90      -99.90      -99.90      -99.90      -99.90      -99.90      -99.90      -99.90      -99.90    
       -99.90      -99.90      -99.90      -99.90      -99.90      -99.90      -99.90      -99.90      -99.90      -99.90    
       -99.90      -99.90      -99.90      -99.90      -99.90      -99.90      -99.90      -99.90      -99.90      -99.90    
  13    31.10       31.04       30.91       30.72       30.47      -99.90      -99.90      -99.90      -99.90      -99.90    
       -99.90      -99.90      -99.90      -99.90      -99.90      -99.90      -99.90      -99.90      -99.90      -99.90    
       -99.90      -99.90      -99.90      -99.90      -99.90      -99.90      -99.90      -99.90      -99.90      -99.90    
       -99.90      -99.90      -99.90      -99.90      -99.90      -99.90      -99.90      -99.90      -99.90      -99.90    
  14   -99.90      -99.90      -99.90      -99.90      -99.90      -99.90      -99.90      -99.90      -99.90      -99.90    
       -99.90      -99.90      -99.90      -99.90      -99.90      -99.90      -99.90      -99.90      -99.90      -99.90    
       -99.90      -99.90      -99.90      -99.90      -99.90      -99.90      -99.90      -99.90      -99.90      -99.90    
       -99.90      -99.90      -99.90      -99.90      -99.90      -99.90      -99.90      -99.90      -99.90      -99.90    
  15   -99.90      -99.90      -99.90      -99.90      -99.90      -99.90      -99.90      -99.90      -99.90      -99.90    
       -99.90      -99.90      -99.90      -99.90      -99.90      -99.90      -99.90      -99.90      -99.90      -99.90    
       -99.90      -99.90      -99.90      -99.90      -99.90      -99.90      -99.90      -99.90      -99.90      -99.90    
       -99.90      -99.90      -99.90      -99.90      -99.90      -99.90      -99.90      -99.90      -99.90      -99.90    
  16   -99.90      -99.90      -99.90      -99.90      -99.90      -99.90      -99.90      -99.90      -99.90      -99.90    
       -99.90      -99.90      -99.90      -99.90      -99.90      -99.90      -99.90      -99.90      -99.90      -99.90    
       -99.90      -99.90      -99.90      -99.90      -99.90      -99.90      -99.90      -99.90      -99.90      -99.90    
       -99.90      -99.90      -99.90      -99.90      -99.90      -99.90      -99.90      -99.90      -99.90      -99.90    
  17   -99.90      -99.90      -99.90      -99.90      -99.90      -99.90      -99.90      -99.90      -99.90      -99.90    
       -99.90      -99.90      -99.90      -99.90      -99.90      -99.90      -99.90      -99.90      -99.90      -99.90    
       -99.90      -99.90      -99.90      -99.90      -99.90      -99.90      -99.90      -99.90      -99.90      -99.90    
       -99.90      -99.90      -99.90      -99.90      -99.90      -99.90      -99.90      -99.90      -99.90      -99.90    
  18   -99.90      -99.90      -99.90      -99.90      -99.90      -99.90      -99.90      -99.90      -99.90      -99.90    
       -99.90      -99.90      -99.90      -99.90      -99.90      -99.90      -99.90      -99.90      -99.90      -99.90    
       -99.90      -99.90      -99.90      -99.90      -99.90      -99.90      -99.90      -99.90      -99.90      -99.90    
       -99.90      -99.90      -99.90      -99.90      -99.90      -99.90      -99.90      -99.90      -99.90      -99.90    
  19   -99.90      -99.90      -99.90      -99.90      -99.90      -99.90      -99.90      -99.90      -99.90      -99.90    
       -99.90      -99.90      -99.90      -99.90      -99.90      -99.90      -99.90      -99.90      -99.90      -99.90    
       -99.90      -99.90      -99.90      -99.90      -99.90      -99.90      -99.90      -99.90      -99.90      -99.90    
       -99.90      -99.90      -99.90      -99.90      -99.90      -99.90      -99.90      -99.90      -99.90      -99.90    
  20   -99.90      -99.90      -99.90      -99.90      -99.90      -99.90      -99.90      -99.90      -99.90      -99.90    
       -99.90      -99.90      -99.90      -99.90      -99.90      -99.90      -99.90      -99.90      -99.90      -99.90    
       -99.90      -99.90      -99.90      -99.90      -99.90      -99.90      -99.90      -99.90      -99.90      -99.90    
       -99.90      -99.90      -99.90      -99.90      -99.90      -99.90      -99.90      -99.90      -99.90      -99.90    
  21   -99.90      -99.90      -99.90      -99.90      -99.90      -99.90      -99.90      -99.90      -99.90      -99.90    
       -99.90      -99.90      -99.90      -99.90      -99.90      -99.90      -99.90      -99.90      -99.90      -99.90    
       -99.90      -99.90      -99.90      -99.90      -99.90      -99.90      -99.90      -99.90      -99.90      -99.90    
       -99.90      -99.90      -99.90      -99.90      -99.90      -99.90      -99.90      -99.90      -99.90      -99.90    
  22   -99.90      -99.90      -99.90      -99.90      -99.90      -99.90      -99.90      -99.90      -99.90      -99.90    
       -99.90      -99.90      -99.90      -99.90      -99.90      -99.90      -99.90      -99.90      -99.90      -99.90    
       -99.90      -99.90      -99.90      -99.90      -99.90      -99.90      -99.90      -99.90      -99.90      -99.90    
       -99.90      -99.90      -99.90      -99.90      -99.90      -99.90      -99.90      -99.90      -99.90      -99.90    
  23   -99.90      -99.90      -99.90      -99.90      -99.90      -99.90      -99.90      -99.90      -99.90      -99.90    
       -99.90      -99.90      -99.90      -99.90      -99.90      -99.90      -99.90      -99.90      -99.90      -99.90    
       -99.90      -99.90      -99.90      -99.90      -99.90      -99.90      -99.90      -99.90      -99.90      -99.90    
       -99.90      -99.90      -99.90      -99.90      -99.90      -99.90      -99.90      -99.90      -99.90      -99.90    
  24   -99.90      -99.90      -99.90      -99.90      -99.90      -99.90      -99.90      -99.90      -99.90      -99.90    
       -99.90      -99.90      -99.90      -99.90      -99.90      -99.90      -99.90      -99.90      -99.90      -99.90    
       -99.90      -99.90      -99.90      -99.90      -99.90      -99.90      -99.90      -99.90      -99.90      -99.90    
       -99.90      -99.90      -99.90      -99.90      -99.90      -99.90      -99.90      -99.90      -99.90      -99.90    
  25   -99.90      -99.90      -99.90      -99.90      -99.90      -99.90      -99.90      -99.90      -99.90      -99.90    
       -99.90      -99.90      -99.90      -99.90      -99.90      -99.90      -99.90      -99.90      -99.90      -99.90    
       -99.90      -99.90      -99.90      -99.90      -99.90      -99.90      -99.90      -99.90      -99.90      -99.90    
       -99.90      -99.90      -99.90      -99.90      -99.90      -99.90      -99.90      -99.90      -99.90      -99.90    
  26   -99.90      -99.90      -99.90      -99.90      -99.90      -99.90      -99.90      -99.90      -99.90      -99.90    
       -99.90      -99.90      -99.90      -99.90      -99.90      -99.90      -99.90      -99.90      -99.90      -99.90    
       -99.90      -99.90      -99.90      -99.90      -99.90      -99.90      -99.90      -99.90      -99.90      -99.90    
       -99.90      -99.90      -99.90      -99.90      -99.90      -99.90      -99.90      -99.90      -99.90      -99.90    
  27   -99.90      -99.90      -99.90      -99.90      -99.90      -99.90      -99.90      -99.90      -99.90      -99.90    
       -99.90      -99.90      -99.90      -99.90      -99.90      -99.90      -99.90      -99.90      -99.90      -99.90    
       -99.90      -99.90      -99.90      -99.90      -99.90      -99.90      -99.90      -99.90      -99.90      -99.90    
       -99.90      -99.90      -99.90      -99.90      -99.90      -99.90      -99.90      -99.90      -99.90      -99.90    
  28   -99.90      -99.90      -99.90      -99.90      -99.90      -99.90      -99.90      -99.90      -99.90      -99.90    
       -99.90      -99.90      -99.90      -99.90      -99.90      -99.90      -99.90      -99.90      -99.90      -99.90    
       -99.90      -99.90      -99.90      -99.90      -99.90      -99.90      -99.90      -99.90      -99.90      -99.90    
       -99.90      -99.90      -99.90      -99.90      -99.90      -99.90      -99.90      -99.90      -99.90      -99.90    
  29   -99.90      -99.90      -99.90      -99.90      -99.90      -99.90      -99.90      -99.90      -99.90      -99.90    
       -99.90      -99.90      -99.90      -99.90      -99.90      -99.90      -99.90      -99.90      -99.90      -99.90    
       -99.90      -99.90      -99.90      -99.90      -99.90      -99.90      -99.90      -99.90      -99.90      -99.90    
       -99.90      -99.90      -99.90      -99.90      -99.90      -99.90      -99.90      -99.90      -99.90      -99.90    
  30   -99.90      -99.90      -99.90      -99.90      -99.90      -99.90      -99.90      -99.90      -99.90      -99.90    
       -99.90      -99.90      -99.90      -99.90      -99.90      -99.90      -99.90      -99.90      -99.90      -99.90    
       -99.90      -99.90      -99.90      -99.90      -99.90      -99.90      -99.90      -99.90      -99.90      -99.90    
       -99.90      -99.90      -99.90      -99.90      -99.90      -99.90      -99.90      -99.90      -99.90      -99.90    
  31   -99.90      -99.90      -99.90      -99.90      -99.90      -99.90      -99.90      -99.90      -99.90      -99.90    
       -99.90      -99.90      -99.90      -99.90      -99.90      -99.90      -99.90      -99.90      -99.90      -99.90    
       -99.90      -99.90      -99.90      -99.90      -99.90      -99.90      -99.90      -99.90      -99.90      -99.90    
       -99.90      -99.90      -99.90      -99.90      -99.90      -99.90      -99.90      -99.90      -99.90      -99.90    
  32   -99.90      -99.90      -99.90      -99.90      -99.90      -99.90      -99.90      -99.90      -99.90      -99.90    
       -99.90      -99.90      -99.90      -99.90      -99.90      -99.90      -99.90      -99.90      -99.90      -99.90    
       -99.90      -99.90      -99.90      -99.90      -99.90      -99.90      -99.90      -99.90      -99.90      -99.90    
       -99.90      -99.90      -99.90      -99.90      -99.90      -99.90      -99.90      -99.90      -99.90      -99.90    
  33   -99.90      -99.90      -99.90      -99.90      -99.90      -99.90      -99.90      -99.90      -99.90      -99.90    
       -99.90      -99.90      -99.90      -99.90      -99.90      -99.90      -99.90      -99.90      -99.90      -99.90    
       -99.90      -99.90      -99.90      -99.90      -99.90      -99.90      -99.90      -99.90      -99.90      -99.90    
       -99.90      -99.90      -99.90      -99.90      -99.90      -99.90      -99.90      -99.90      -99.90      -99.90    
  34   -99.90      -99.90      -99.90      -99.90      -99.90      -99.90      -99.90      -99.90      -99.90      -99.90    
       -99.90      -99.90      -99.90      -99.90      -99.90      -99.90      -99.90      -99.90      -99.90      -99.90    
       -99.90      -99.90      -99.90      -99.90      -99.90      -99.90      -99.90      -99.90      -99.90      -99.90    
       -99.90      -99.90      -99.90      -99.90      -99.90      -99.90      -99.90      -99.90      -99.90      -99.90    
  35   -99.90      -99.90      -99.90      -99.90      -99.90      -99.90      -99.90      -99.90      -99.90      -99.90    
       -99.90      -99.90      -99.90      -99.90      -99.90      -99.90      -99.90      -99.90      -99.90      -99.90    
       -99.90      -99.90      -99.90      -99.90      -99.90      -99.90      -99.90      -99.90      -99.90      -99.90    
       -99.90      -99.90      -99.90      -99.90      -99.90      -99.90      -99.90      -99.90      -99.90      -99.90    
  36   -99.90      -99.90      -99.90      -99.90      -99.90      -99.90      -99.90      -99.90      -99.90      -99.90    
       -99.90      -99.90      -99.90      -99.90      -99.90      -99.90      -99.90      -99.90      -99.90      -99.90    
       -99.90      -99.90      -99.90      -99.90      -99.90      -99.90      -99.90      -99.90      -99.90      -99.90    
       -99.90      -99.90      -99.90      -99.90      -99.90      -99.90      -99.90      -99.90      -99.90      -99.90    
  37   -99.90      -99.90      -99.90      -99.90      -99.90      -99.90      -99.90      -99.90      -99.90      -99.90    
       -99.90      -99.90      -99.90      -99.90      -99.90      -99.90      -99.90      -99.90      -99.90      -99.90    
       -99.90      -99.90      -99.90      -99.90      -99.90      -99.90      -99.90      -99.90      -99.90      -99.90    
       -99.90      -99.90      -99.90      -99.90      -99.90      -99.90      -99.90      -99.90      -99.90      -99.90    
  38   -99.90      -99.90      -99.90      -99.90      -99.90      -99.90      -99.90      -99.90      -99.90      -99.90    
       -99.90      -99.90      -99.90      -99.90      -99.90      -99.90      -99.90      -99.90      -99.90      -99.90    
       -99.90      -99.90      -99.90      -99.90      -99.90      -99.90      -99.90      -99.90      -99.90      -99.90    
       -99.90      -99.90      -99.90      -99.90      -99.90      -99.90      -99.90      -99.90      -99.90      -99.90    
  39   -99.90      -99.90      -99.90      -99.90      -99.90      -99.90      -99.90      -99.90      -99.90      -99.90    
       -99.90      -99.90      -99.90      -99.90      -99.90      -99.90      -99.90      -99.90      -99.90      -99.90    
       -99.90      -99.90      -99.90      -99.90      -99.90      -99.90      -99.90      -99.90      -99.90      -99.90    
       -99.90      -99.90      -99.90      -99.90      -99.90      -99.90      -99.90      -99.90      -99.90      -99.90    
  40   -99.90      -99.90      -99.90      -99.90      -99.90      -99.90      -99.90      -99.90      -99.90      -99.90    
       -99.90      -99.90      -99.90      -99.90      -99.90      -99.90      -99.90      -99.90      -99.90      -99.90    
       -99.90      -99.90      -99.90      -99.90      -99.90      -99.90      -99.90      -99.90      -99.90      -99.90    
       -99.90      -99.90      -99.90      -99.90      -99.90      -99.90      -99.90      -99.90      -99.90      -99.90    
1
              HEAD IN LAYER   9 AT END OF TIME STEP  17 IN STRESS PERIOD    3
  ---------------------------------------------------------------------------

            1           2           3           4           5           6           7           8           9          10
           11          12          13          14          15          16          17          18          19          20
           21          22          23          24          25          26          27          28          29          30
           31          32          33          34          35          36          37          38          39          40
 ........................................................................................................................
   1    51.18       49.69       46.29       43.46       41.17       39.26       37.63       36.20       34.92       33.80    
        32.80       31.90       31.10       30.38       29.70       29.11       28.58       28.11       27.70       27.33    
        27.00       26.72       26.47       26.25       26.06       25.89       25.74       25.61       25.50       25.36    
       -99.90      -99.90      -99.90      -99.90      -99.90      -99.90      -99.90      -99.90      -99.90      -99.90    
   2    49.69       48.39       45.34       42.83       40.74       38.95       37.39       36.01       34.78       33.69    
        32.71       31.83       31.04       30.33       29.66       29.07       28.55       28.09       27.68       27.31    
        26.99       26.71       26.46       26.24       26.05       25.88       25.74       25.61       25.49       25.36    
       -99.90      -99.90      -99.90      -99.90      -99.90      -99.90      -99.90      -99.90      -99.90      -99.90    
   3    46.29       45.34       43.54       41.69       39.94       38.38       36.96       35.65       34.51       33.47    
        32.53       31.68       30.91       30.22       29.57       29.00       28.49       28.04       27.63       27.28    
        26.96       26.68       26.44       26.22       26.04       25.87       25.73       25.60       25.49       25.35    
       -99.90      -99.90      -99.90      -99.90      -99.90      -99.90      -99.90      -99.90      -99.90      -99.90    
   4    43.46       42.83       41.69       40.32       38.94       37.62       36.38       35.21       34.14       33.17    
        32.28       31.46       30.72       30.05       29.45       28.90       28.40       27.96       27.57       27.22    
        26.92       26.65       26.41       26.20       26.02       25.86       25.72       25.59       25.48       25.35    
       -99.90      -99.90      -99.90      -99.90      -99.90      -99.90      -99.90      -99.90      -99.90      -99.90    
   5    41.17       40.74       39.94       38.94       37.86       36.75       35.67       34.64       33.68       32.79    
        31.96       31.20       30.48       29.86       29.29       28.76       28.29       27.87       27.49       27.16    
        26.86       26.60       26.37       26.17       25.99       25.83       25.70       25.58       25.48       25.36    
       -99.90      -99.90      -99.90      -99.90      -99.90      -99.90      -99.90      -99.90      -99.90      -99.90    
   6    39.26       38.95       38.38       37.62       36.75       35.84       34.91       34.02       33.17       32.36    
        31.60       30.89       30.25       29.64       29.10       28.61       28.16       27.76       27.40       27.08    
        26.79       26.54       26.32       26.13       25.96       25.81       25.68       25.56       25.47      -99.90    
       -99.90      -99.90      -99.90      -99.90      -99.90      -99.90      -99.90      -99.90      -99.90      -99.90    
   7    37.63       37.39       36.96       36.38       35.67       34.91       34.14       33.36       32.61       31.89    
        31.20       30.53       29.95       29.40       28.89       28.43       28.01       27.63       27.29       26.99    
        26.72       26.48       26.27       26.08       25.92       25.78       25.65       25.54       25.45      -99.90    
       -99.90      -99.90      -99.90      -99.90      -99.90      -99.90      -99.90      -99.90      -99.90      -99.90    
   8    36.20       36.01       35.65       35.21       34.64       34.02       33.36       32.70       32.04       31.40    
        30.78       30.20       29.64       29.14       28.67       28.24       27.85       27.49       27.17       26.89    
        26.63       26.41       26.21       26.03       25.88       25.74       25.62       25.51       25.39      -99.90    
       -99.90      -99.90      -99.90      -99.90      -99.90      -99.90      -99.90      -99.90      -99.90      -99.90    
   9    34.92       34.78       34.51       34.14       33.68       33.17       32.61       32.04       31.46       30.90    
        30.36       29.82       29.32       28.86       28.43       28.03       27.67       27.35       27.05       26.78    
        26.54       26.33       26.14       25.98       25.83       25.70       25.59       25.48       25.36      -99.90    
       -99.90      -99.90      -99.90      -99.90      -99.90      -99.90      -99.90      -99.90      -99.90      -99.90    
  10    33.80       33.69       33.47       33.17       32.79       32.36       31.89       31.40       30.90       30.41    
        29.91       29.44       29.00       28.58       28.19       27.82       27.49       27.19       26.92       26.67    
        26.45       26.25       26.08       25.92       25.78       25.66       25.55       25.46       25.35      -99.90    
       -99.90      -99.90      -99.90      -99.90      -99.90      -99.90      -99.90      -99.90      -99.90      -99.90    
  11    32.80       32.71       32.53       32.28       31.96       31.60       31.20       30.78       30.36       29.91    
        29.48       29.07       28.67       28.29       27.94       27.61       27.31       27.03       26.78       26.56    
        26.35       26.17       26.01       25.86       25.74       25.62       25.52       25.39      -99.90      -99.90    
       -99.90      -99.90      -99.90      -99.90      -99.90      -99.90      -99.90      -99.90      -99.90      -99.90    
  12    31.90       31.83       31.68       31.46       31.20       30.89       30.53       30.20       29.82       29.44    
        29.07       28.70       28.35       28.01       27.69       27.40       27.13       26.88       26.65       26.44    
        26.25       26.09       25.94       25.80       25.69       25.58       25.49       25.37      -99.90      -99.90    
       -99.90      -99.90      -99.90      -99.90      -99.90      -99.90      -99.90      -99.90      -99.90      -99.90    
  13    31.10       31.04       30.91       30.72       30.48       30.25       29.95       29.64       29.32       29.00    
        28.67       28.35       28.03       27.74       27.46       27.19       26.95       26.72       26.51       26.33    
        26.16       26.00       25.87       25.74       25.64       25.54       25.46      -99.90      -99.90      -99.90    
       -99.90      -99.90      -99.90      -99.90      -99.90      -99.90      -99.90      -99.90      -99.90      -99.90    
  14    30.38       30.33       30.22       30.05       29.86       29.64       29.40       29.14       28.86       28.58    
        28.29       28.01       27.74       27.47       27.22       26.99       26.77       26.57       26.38       26.21    
        26.06       25.92       25.80       25.69       25.59       25.50       25.38      -99.90      -99.90      -99.90    
       -99.90      -99.90      -99.90      -99.90      -99.90      -99.90      -99.90      -99.90      -99.90      -99.90    
  15    29.70       29.66       29.57       29.45       29.29       29.10       28.89       28.67       28.43       28.19    
        27.94       27.69       27.46       27.22       27.00       26.80       26.60       26.42       26.26       26.11    
        25.97       25.84       25.73       25.63       25.54       25.46       25.36      -99.90      -99.90      -99.90    
       -99.90      -99.90      -99.90      -99.90      -99.90      -99.90      -99.90      -99.90      -99.90      -99.90    
  16    29.11       29.07       29.00       28.90       28.76       28.61       28.43       28.24       28.03       27.82    
        27.61       27.40       27.19       26.99       26.80       26.61       26.44       26.28       26.14       26.00    
        25.88       25.77       25.67       25.58       25.49       25.39      -99.90      -99.90      -99.90      -99.90    
       -99.90      -99.90      -99.90      -99.90      -99.90      -99.90      -99.90      -99.90      -99.90      -99.90    
  17    28.58       28.55       28.49       28.40       28.29       28.16       28.01       27.85       27.67       27.49    
        27.31       27.13       26.95       26.77       26.60       26.44       26.29       26.15       26.02       25.90    
        25.79       25.70       25.61       25.53       25.46      -99.90      -99.90      -99.90      -99.90      -99.90    
       -99.90      -99.90      -99.90      -99.90      -99.90      -99.90      -99.90      -99.90      -99.90      -99.90    
  18    28.11       28.09       28.04       27.96       27.87       27.76       27.63       27.49       27.35       27.19    
        27.03       26.88       26.72       26.57       26.42       26.28       26.15       26.03       25.92       25.81    
        25.72       25.63       25.55       25.48       25.39      -99.90      -99.90      -99.90      -99.90      -99.90    
       -99.90      -99.90      -99.90      -99.90      -99.90      -99.90      -99.90      -99.90      -99.90      -99.90    
  19    27.70       27.68       27.63       27.57       27.49       27.40       27.29       27.17       27.05       26.92    
        26.78       26.65       26.51       26.38       26.26       26.14       26.02       25.92       25.82       25.73    
        25.65       25.57       25.50       25.41      -99.90      -99.90      -99.90      -99.90      -99.90      -99.90    
       -99.90      -99.90      -99.90      -99.90      -99.90      -99.90      -99.90      -99.90      -99.90      -99.90    
  20    27.33       27.31       27.28       27.22       27.16       27.08       26.99       26.89       26.78       26.67    
        26.56       26.44       26.33       26.21       26.11       26.00       25.90       25.81       25.73       25.65    
        25.58       25.52       25.47      -99.90      -99.90      -99.90      -99.90      -99.90      -99.90      -99.90    
       -99.90      -99.90      -99.90      -99.90      -99.90      -99.90      -99.90      -99.90      -99.90      -99.90    
  21    27.00       26.99       26.96       26.92       26.86       26.79       26.72       26.63       26.54       26.45    
        26.35       26.25       26.16       26.06       25.97       25.88       25.79       25.72       25.65       25.58    
        25.53       25.48      -99.90      -99.90      -99.90      -99.90      -99.90      -99.90      -99.90      -99.90    
       -99.90      -99.90      -99.90      -99.90      -99.90      -99.90      -99.90      -99.90      -99.90      -99.90    
  22    26.72       26.71       26.68       26.65       26.60       26.54       26.48       26.41       26.33       26.25    
        26.17       26.09       26.00       25.92       25.84       25.77       25.70       25.63       25.57       25.52    
        25.48      -99.90      -99.90      -99.90      -99.90      -99.90      -99.90      -99.90      -99.90      -99.90    
       -99.90      -99.90      -99.90      -99.90      -99.90      -99.90      -99.90      -99.90      -99.90      -99.90    
  23    26.47       26.46       26.44       26.41       26.37       26.32       26.27       26.21       26.14       26.08    
        26.01       25.94       25.87       25.80       25.73       25.67       25.61       25.55       25.50       25.47    
       -99.90      -99.90      -99.90      -99.90      -99.90      -99.90      -99.90      -99.90      -99.90      -99.90    
       -99.90      -99.90      -99.90      -99.90      -99.90      -99.90      -99.90      -99.90      -99.90      -99.90    
  24    26.25       26.24       26.22       26.20       26.17       26.13       26.08       26.03       25.98       25.92    
        25.86       25.80       25.74       25.69       25.63       25.58       25.53       25.48       25.41      -99.90    
       -99.90      -99.90      -99.90      -99.90      -99.90      -99.90      -99.90      -99.90      -99.90      -99.90    
       -99.90      -99.90      -99.90      -99.90      -99.90      -99.90      -99.90      -99.90      -99.90      -99.90    
  25    26.06       26.05       26.04       26.02       25.99       25.96       25.92       25.88       25.83       25.78    
        25.74       25.69       25.64       25.59       25.54       25.49       25.46       25.39      -99.90      -99.90    
       -99.90      -99.90      -99.90      -99.90      -99.90      -99.90      -99.90      -99.90      -99.90      -99.90    
       -99.90      -99.90      -99.90      -99.90      -99.90      -99.90      -99.90      -99.90      -99.90      -99.90    
  26    25.89       25.88       25.87       25.86       25.83       25.81       25.78       25.74       25.70       25.66    
        25.62       25.58       25.54       25.50       25.46       25.39      -99.90      -99.90      -99.90      -99.90    
       -99.90      -99.90      -99.90      -99.90      -99.90      -99.90      -99.90      -99.90      -99.90      -99.90    
       -99.90      -99.90      -99.90      -99.90      -99.90      -99.90      -99.90      -99.90      -99.90      -99.90    
  27    25.74       25.74       25.73       25.72       25.70       25.68       25.65       25.62       25.59       25.55    
        25.52       25.49       25.46       25.38       25.36      -99.90      -99.90      -99.90      -99.90      -99.90    
       -99.90      -99.90      -99.90      -99.90      -99.90      -99.90      -99.90      -99.90      -99.90      -99.90    
       -99.90      -99.90      -99.90      -99.90      -99.90      -99.90      -99.90      -99.90      -99.90      -99.90    
  28    25.61       25.61       25.60       25.59       25.58       25.56       25.54       25.51       25.48       25.46    
        25.39       25.37      -99.90      -99.90      -99.90      -99.90      -99.90      -99.90      -99.90      -99.90    
       -99.90      -99.90      -99.90      -99.90      -99.90      -99.90      -99.90      -99.90      -99.90      -99.90    
       -99.90      -99.90      -99.90      -99.90      -99.90      -99.90      -99.90      -99.90      -99.90      -99.90    
  29    25.50       25.49       25.49       25.48       25.48       25.47       25.45       25.39       25.36       25.35    
       -99.90      -99.90      -99.90      -99.90      -99.90      -99.90      -99.90      -99.90      -99.90      -99.90    
       -99.90      -99.90      -99.90      -99.90      -99.90      -99.90      -99.90      -99.90      -99.90      -99.90    
       -99.90      -99.90      -99.90      -99.90      -99.90      -99.90      -99.90      -99.90      -99.90      -99.90    
  30    25.36       25.36       25.35       25.35       25.36      -99.90      -99.90      -99.90      -99.90      -99.90    
       -99.90      -99.90      -99.90      -99.90      -99.90      -99.90      -99.90      -99.90      -99.90      -99.90    
       -99.90      -99.90      -99.90      -99.90      -99.90      -99.90      -99.90      -99.90      -99.90      -99.90    
       -99.90      -99.90      -99.90      -99.90      -99.90      -99.90      -99.90      -99.90      -99.90      -99.90    
  31   -99.90      -99.90      -99.90      -99.90      -99.90      -99.90      -99.90      -99.90      -99.90      -99.90    
       -99.90      -99.90      -99.90      -99.90      -99.90      -99.90      -99.90      -99.90      -99.90      -99.90    
       -99.90      -99.90      -99.90      -99.90      -99.90      -99.90      -99.90      -99.90      -99.90      -99.90    
       -99.90      -99.90      -99.90      -99.90      -99.90      -99.90      -99.90      -99.90      -99.90      -99.90    
  32   -99.90      -99.90      -99.90      -99.90      -99.90      -99.90      -99.90      -99.90      -99.90      -99.90    
       -99.90      -99.90      -99.90      -99.90      -99.90      -99.90      -99.90      -99.90      -99.90      -99.90    
       -99.90      -99.90      -99.90      -99.90      -99.90      -99.90      -99.90      -99.90      -99.90      -99.90    
       -99.90      -99.90      -99.90      -99.90      -99.90      -99.90      -99.90      -99.90      -99.90      -99.90    
  33   -99.90      -99.90      -99.90      -99.90      -99.90      -99.90      -99.90      -99.90      -99.90      -99.90    
       -99.90      -99.90      -99.90      -99.90      -99.90      -99.90      -99.90      -99.90      -99.90      -99.90    
       -99.90      -99.90      -99.90      -99.90      -99.90      -99.90      -99.90      -99.90      -99.90      -99.90    
       -99.90      -99.90      -99.90      -99.90      -99.90      -99.90      -99.90      -99.90      -99.90      -99.90    
  34   -99.90      -99.90      -99.90      -99.90      -99.90      -99.90      -99.90      -99.90      -99.90      -99.90    
       -99.90      -99.90      -99.90      -99.90      -99.90      -99.90      -99.90      -99.90      -99.90      -99.90    
       -99.90      -99.90      -99.90      -99.90      -99.90      -99.90      -99.90      -99.90      -99.90      -99.90    
       -99.90      -99.90      -99.90      -99.90      -99.90      -99.90      -99.90      -99.90      -99.90      -99.90    
  35   -99.90      -99.90      -99.90      -99.90      -99.90      -99.90      -99.90      -99.90      -99.90      -99.90    
       -99.90      -99.90      -99.90      -99.90      -99.90      -99.90      -99.90      -99.90      -99.90      -99.90    
       -99.90      -99.90      -99.90      -99.90      -99.90      -99.90      -99.90      -99.90      -99.90      -99.90    
       -99.90      -99.90      -99.90      -99.90      -99.90      -99.90      -99.90      -99.90      -99.90      -99.90    
  36   -99.90      -99.90      -99.90      -99.90      -99.90      -99.90      -99.90      -99.90      -99.90      -99.90    
       -99.90      -99.90      -99.90      -99.90      -99.90      -99.90      -99.90      -99.90      -99.90      -99.90    
       -99.90      -99.90      -99.90      -99.90      -99.90      -99.90      -99.90      -99.90      -99.90      -99.90    
       -99.90      -99.90      -99.90      -99.90      -99.90      -99.90      -99.90      -99.90      -99.90      -99.90    
  37   -99.90      -99.90      -99.90      -99.90      -99.90      -99.90      -99.90      -99.90      -99.90      -99.90    
       -99.90      -99.90      -99.90      -99.90      -99.90      -99.90      -99.90      -99.90      -99.90      -99.90    
       -99.90      -99.90      -99.90      -99.90      -99.90      -99.90      -99.90      -99.90      -99.90      -99.90    
       -99.90      -99.90      -99.90      -99.90      -99.90      -99.90      -99.90      -99.90      -99.90      -99.90    
  38   -99.90      -99.90      -99.90      -99.90      -99.90      -99.90      -99.90      -99.90      -99.90      -99.90    
       -99.90      -99.90      -99.90      -99.90      -99.90      -99.90      -99.90      -99.90      -99.90      -99.90    
       -99.90      -99.90      -99.90      -99.90      -99.90      -99.90      -99.90      -99.90      -99.90      -99.90    
       -99.90      -99.90      -99.90      -99.90      -99.90      -99.90      -99.90      -99.90      -99.90      -99.90    
  39   -99.90      -99.90      -99.90      -99.90      -99.90      -99.90      -99.90      -99.90      -99.90      -99.90    
       -99.90      -99.90      -99.90      -99.90      -99.90      -99.90      -99.90      -99.90      -99.90      -99.90    
       -99.90      -99.90      -99.90      -99.90      -99.90      -99.90      -99.90      -99.90      -99.90      -99.90    
       -99.90      -99.90      -99.90      -99.90      -99.90      -99.90      -99.90      -99.90      -99.90      -99.90    
  40   -99.90      -99.90      -99.90      -99.90      -99.90      -99.90      -99.90      -99.90      -99.90      -99.90    
       -99.90      -99.90      -99.90      -99.90      -99.90      -99.90      -99.90      -99.90      -99.90      -99.90    
       -99.90      -99.90      -99.90      -99.90      -99.90      -99.90      -99.90      -99.90      -99.90      -99.90    
       -99.90      -99.90      -99.90      -99.90      -99.90      -99.90      -99.90      -99.90      -99.90      -99.90    
1
              HEAD IN LAYER  10 AT END OF TIME STEP  17 IN STRESS PERIOD    3
  ---------------------------------------------------------------------------

            1           2           3           4           5           6           7           8           9          10
           11          12          13          14          15          16          17          18          19          20
           21          22          23          24          25          26          27          28          29          30
           31          32          33          34          35          36          37          38          39          40
 ........................................................................................................................
   1    50.73       49.28       46.16       43.42       41.16       39.25       37.62       36.19       34.92       33.80    
        32.80       31.90       31.10       30.38       29.71       29.12       28.59       28.12       27.70       27.33    
        27.01       26.72       26.47       26.25       26.06       25.89       25.75       25.62       25.50       25.37    
        25.34       25.30       25.27       25.23       25.19       25.15       25.11       25.08       25.04       25.00    
   2    49.28       48.00       45.24       42.80       40.72       38.94       37.39       36.01       34.78       33.69    
        32.71       31.83       31.04       30.33       29.66       29.08       28.56       28.09       27.68       27.31    
        26.99       26.71       26.46       26.24       26.05       25.89       25.74       25.61       25.49       25.37    
        25.34       25.30       25.27       25.23       25.19       25.15       25.11       25.08       25.04       25.00    
   3    46.16       45.24       43.50       41.67       39.93       38.37       36.95       35.66       34.51       33.47    
        32.53       31.68       30.91       30.22       29.58       29.01       28.50       28.04       27.64       27.28    
        26.96       26.68       26.44       26.23       26.04       25.88       25.73       25.61       25.49       25.37    
        25.34       25.30       25.27       25.23       25.19       25.15       25.11       25.08       25.04       25.00    
   4    43.42       42.80       41.67       40.31       38.94       37.61       36.37       35.21       34.14       33.17    
        32.28       31.47       30.73       30.06       29.45       28.90       28.41       27.97       27.58       27.23    
        26.92       26.65       26.41       26.20       26.02       25.86       25.72       25.60       25.48       25.36    
        25.34       25.30       25.26       25.23       25.19       25.15       25.11       25.07       25.04       25.00    
   5    41.16       40.72       39.93       38.94       37.85       36.75       35.67       34.64       33.68       32.79    
        31.96       31.20       30.49       29.86       29.29       28.77       28.30       27.87       27.50       27.16    
        26.86       26.60       26.37       26.17       25.99       25.84       25.70       25.58       25.48       25.37    
        25.34       25.30       25.26       25.23       25.19       25.15       25.11       25.07       25.04       25.00    
   6    39.25       38.94       38.37       37.61       36.75       35.84       34.91       34.02       33.17       32.36    
        31.60       30.89       30.25       29.65       29.10       28.61       28.16       27.76       27.40       27.08    
        26.80       26.55       26.32       26.13       25.96       25.81       25.68       25.57       25.47       25.40    
        25.35       25.30       25.26       25.22       25.19       25.15       25.11       25.07       25.04       25.00    
   7    37.62       37.39       36.95       36.37       35.67       34.91       34.14       33.37       32.61       31.89    
        31.20       30.54       29.95       29.40       28.90       28.43       28.01       27.64       27.30       26.99    
        26.72       26.48       26.27       26.08       25.92       25.78       25.65       25.54       25.45       25.39    
        25.34       25.30       25.26       25.22       25.18       25.15       25.11       25.07       25.04       25.00    
   8    36.19       36.01       35.66       35.21       34.64       34.02       33.37       32.70       32.04       31.40    
        30.79       30.20       29.65       29.14       28.67       28.24       27.85       27.50       27.18       26.89    
        26.64       26.41       26.21       26.03       25.88       25.74       25.62       25.51       25.40       25.37    
        25.33       25.29       25.25       25.22       25.18       25.14       25.11       25.07       25.04       25.00    
   9    34.92       34.78       34.51       34.14       33.68       33.17       32.61       32.04       31.47       30.91    
        30.36       29.83       29.33       28.86       28.43       28.04       27.68       27.35       27.05       26.79    
        26.55       26.34       26.15       25.98       25.83       25.70       25.59       25.49       25.37       25.36    
        25.32       25.29       25.25       25.21       25.18       25.14       25.11       25.07       25.04       25.00    
  10    33.80       33.69       33.47       33.17       32.79       32.36       31.89       31.40       30.91       30.41    
        29.92       29.45       29.00       28.58       28.19       27.83       27.50       27.19       26.92       26.67    
        26.45       26.26       26.08       25.92       25.79       25.66       25.56       25.46       25.36       25.34    
        25.31       25.28       25.24       25.21       25.17       25.14       25.10       25.07       25.03       25.00    
  11    32.80       32.71       32.53       32.28       31.96       31.60       31.20       30.79       30.36       29.92    
        29.49       29.07       28.67       28.30       27.94       27.62       27.31       27.04       26.79       26.56    
        26.36       26.17       26.01       25.87       25.74       25.62       25.52       25.40       25.37       25.34    
        25.31       25.27       25.24       25.20       25.17       25.13       25.10       25.07       25.03       25.00    
  12    31.90       31.83       31.68       31.47       31.20       30.89       30.54       30.20       29.83       29.45    
        29.07       28.70       28.35       28.01       27.70       27.40       27.13       26.88       26.65       26.44    
        26.26       26.09       25.94       25.81       25.69       25.58       25.49       25.38       25.36       25.33    
        25.30       25.26       25.23       25.20       25.16       25.13       25.10       25.07       25.03       25.00    
  13    31.10       31.04       30.91       30.73       30.49       30.25       29.95       29.65       29.33       29.00    
        28.67       28.35       28.04       27.74       27.46       27.20       26.95       26.72       26.52       26.33    
        26.16       26.01       25.87       25.75       25.64       25.54       25.46       25.40       25.36       25.32    
        25.29       25.26       25.22       25.19       25.16       25.13       25.10       25.06       25.03       25.00    
  14    30.38       30.33       30.22       30.06       29.86       29.65       29.40       29.14       28.86       28.58    
        28.30       28.01       27.74       27.48       27.23       26.99       26.77       26.57       26.39       26.22    
        26.06       25.92       25.80       25.69       25.59       25.50       25.40       25.38       25.35       25.31    
        25.28       25.25       25.22       25.19       25.15       25.12       25.09       25.06       25.03       25.00    
  15    29.71       29.66       29.58       29.45       29.29       29.10       28.90       28.67       28.43       28.19    
        27.94       27.70       27.46       27.23       27.01       26.80       26.61       26.43       26.26       26.11    
        25.97       25.85       25.73       25.63       25.54       25.46       25.37       25.36       25.33       25.30    
        25.27       25.24       25.21       25.18       25.15       25.12       25.09       25.06       25.03       25.00    
  16    29.12       29.08       29.01       28.90       28.77       28.61       28.43       28.24       28.04       27.83    
        27.62       27.40       27.20       26.99       26.80       26.62       26.45       26.29       26.14       26.00    
        25.88       25.77       25.67       25.58       25.50       25.40       25.38       25.35       25.32       25.29    
        25.26       25.23       25.20       25.17       25.15       25.12       25.09       25.06       25.03       25.00    
  17    28.59       28.56       28.50       28.41       28.30       28.16       28.01       27.85       27.68       27.50    
        27.31       27.13       26.95       26.77       26.61       26.45       26.30       26.16       26.03       25.91    
        25.80       25.70       25.61       25.53       25.46       25.41       25.37       25.34       25.31       25.28    
        25.25       25.23       25.20       25.17       25.14       25.11       25.08       25.06       25.03       25.00    
  18    28.12       28.09       28.04       27.97       27.87       27.76       27.64       27.50       27.35       27.19    
        27.04       26.88       26.72       26.57       26.43       26.29       26.16       26.03       25.92       25.81    
        25.72       25.63       25.55       25.48       25.40       25.39       25.36       25.33       25.30       25.27    
        25.25       25.22       25.19       25.16       25.13       25.11       25.08       25.05       25.03       25.00    
  19    27.70       27.68       27.64       27.58       27.50       27.40       27.30       27.18       27.05       26.92    
        26.79       26.65       26.52       26.39       26.26       26.14       26.03       25.92       25.82       25.73    
        25.65       25.57       25.50       25.42       25.40       25.38       25.35       25.32       25.29       25.26    
        25.24       25.21       25.18       25.16       25.13       25.10       25.08       25.05       25.03       25.00    
  20    27.33       27.31       27.28       27.23       27.16       27.08       26.99       26.89       26.79       26.67    
        26.56       26.44       26.33       26.22       26.11       26.00       25.91       25.81       25.73       25.65    
        25.59       25.53       25.47       25.43       25.39       25.36       25.33       25.31       25.28       25.25    
        25.23       25.20       25.17       25.15       25.12       25.10       25.07       25.05       25.02       25.00    
  21    27.01       26.99       26.96       26.92       26.86       26.80       26.72       26.64       26.55       26.45    
        26.36       26.26       26.16       26.06       25.97       25.88       25.80       25.72       25.65       25.59    
        25.53       25.49       25.45       25.41       25.38       25.35       25.32       25.29       25.27       25.24    
        25.22       25.19       25.17       25.14       25.12       25.09       25.07       25.05       25.02       25.00    
  22    26.72       26.71       26.68       26.65       26.60       26.55       26.48       26.41       26.34       26.26    
        26.17       26.09       26.01       25.92       25.85       25.77       25.70       25.63       25.57       25.53    
        25.49       25.45       25.42       25.39       25.36       25.33       25.30       25.28       25.25       25.23    
        25.21       25.18       25.16       25.14       25.11       25.09       25.07       25.04       25.02       25.00    
  23    26.47       26.46       26.44       26.41       26.37       26.32       26.27       26.21       26.15       26.08    
        26.01       25.94       25.87       25.80       25.73       25.67       25.61       25.55       25.50       25.47    
        25.45       25.42       25.39       25.37       25.34       25.31       25.29       25.26       25.24       25.22    
        25.19       25.17       25.15       25.13       25.11       25.09       25.06       25.04       25.02       25.00    
  24    26.25       26.24       26.23       26.20       26.17       26.13       26.08       26.03       25.98       25.92    
        25.87       25.81       25.75       25.69       25.63       25.58       25.53       25.48       25.42       25.43    
        25.41       25.39       25.37       25.34       25.32       25.29       25.27       25.25       25.23       25.21    
        25.18       25.16       25.14       25.12       25.10       25.08       25.06       25.04       25.02       25.00    
  25    26.06       26.05       26.04       26.02       25.99       25.96       25.92       25.88       25.83       25.79    
        25.74       25.69       25.64       25.59       25.54       25.50       25.46       25.40       25.40       25.39    
        25.38       25.36       25.34       25.32       25.30       25.28       25.25       25.23       25.21       25.19    
        25.17       25.15       25.13       25.11       25.09       25.08       25.06       25.04       25.02       25.00    
  26    25.89       25.89       25.88       25.86       25.84       25.81       25.78       25.74       25.70       25.66    
        25.62       25.58       25.54       25.50       25.46       25.40       25.41       25.39       25.38       25.36    
        25.35       25.33       25.31       25.29       25.28       25.26       25.24       25.22       25.20       25.18    
        25.16       25.14       25.12       25.11       25.09       25.07       25.05       25.04       25.02       25.00    
  27    25.75       25.74       25.73       25.72       25.70       25.68       25.65       25.62       25.59       25.56    
        25.52       25.49       25.46       25.40       25.37       25.38       25.37       25.36       25.35       25.33    
        25.32       25.30       25.29       25.27       25.25       25.24       25.22       25.20       25.18       25.17    
        25.15       25.13       25.12       25.10       25.08       25.07       25.05       25.03       25.02       25.00    
  28    25.62       25.61       25.61       25.60       25.58       25.57       25.54       25.51       25.49       25.46    
        25.40       25.38       25.40       25.38       25.36       25.35       25.34       25.33       25.32       25.31    
        25.29       25.28       25.26       25.25       25.23       25.22       25.20       25.19       25.17       25.15    
        25.14       25.12       25.11       25.09       25.08       25.06       25.05       25.03       25.02       25.00    
  29    25.50       25.49       25.49       25.48       25.48       25.47       25.45       25.40       25.37       25.36    
        25.37       25.36       25.36       25.35       25.33       25.32       25.31       25.30       25.29       25.28    
        25.27       25.25       25.24       25.23       25.21       25.20       25.18       25.17       25.16       25.14    
        25.13       25.11       25.10       25.08       25.07       25.06       25.04       25.03       25.01       25.00    
  30    25.37       25.37       25.37       25.36       25.37       25.40       25.39       25.37       25.36       25.34    
        25.34       25.33       25.32       25.31       25.30       25.29       25.28       25.27       25.26       25.25    
        25.24       25.23       25.22       25.21       25.19       25.18       25.17       25.15       25.14       25.13    
        25.12       25.10       25.09       25.08       25.06       25.05       25.04       25.03       25.01       25.00    
  31    25.34       25.34       25.34       25.34       25.34       25.35       25.34       25.33       25.32       25.31    
        25.31       25.30       25.29       25.28       25.27       25.26       25.25       25.25       25.24       25.23    
        25.22       25.21       25.19       25.18       25.17       25.16       25.15       25.14       25.13       25.12    
        25.10       25.09       25.08       25.07       25.06       25.05       25.03       25.02       25.01       25.00    
  32    25.30       25.30       25.30       25.30       25.30       25.30       25.30       25.29       25.29       25.28    
        25.27       25.26       25.26       25.25       25.24       25.23       25.23       25.22       25.21       25.20    
        25.19       25.18       25.17       25.16       25.15       25.14       25.13       25.12       25.11       25.10    
        25.09       25.08       25.07       25.06       25.05       25.04       25.03       25.02       25.01       25.00    
  33    25.27       25.27       25.27       25.26       25.26       25.26       25.26       25.25       25.25       25.24    
        25.24       25.23       25.22       25.22       25.21       25.20       25.20       25.19       25.18       25.17    
        25.17       25.16       25.15       25.14       25.13       25.12       25.12       25.11       25.10       25.09    
        25.08       25.07       25.06       25.05       25.04       25.04       25.03       25.02       25.01       25.00    
  34    25.23       25.23       25.23       25.23       25.23       25.22       25.22       25.22       25.21       25.21    
        25.20       25.20       25.19       25.19       25.18       25.17       25.17       25.16       25.16       25.15    
        25.14       25.14       25.13       25.12       25.11       25.11       25.10       25.09       25.08       25.08    
        25.07       25.06       25.05       25.05       25.04       25.03       25.02       25.02       25.01       25.00    
  35    25.19       25.19       25.19       25.19       25.19       25.19       25.18       25.18       25.18       25.17    
        25.17       25.16       25.16       25.15       25.15       25.15       25.14       25.13       25.13       25.12    
        25.12       25.11       25.11       25.10       25.09       25.09       25.08       25.08       25.07       25.06    
        25.06       25.05       25.04       25.04       25.03       25.03       25.02       25.01       25.01       25.00    
  36    25.15       25.15       25.15       25.15       25.15       25.15       25.15       25.14       25.14       25.14    
        25.13       25.13       25.13       25.12       25.12       25.12       25.11       25.11       25.10       25.10    
        25.09       25.09       25.09       25.08       25.08       25.07       25.07       25.06       25.06       25.05    
        25.05       25.04       25.04       25.03       25.03       25.02       25.02       25.01       25.01       25.00    
  37    25.11       25.11       25.11       25.11       25.11       25.11       25.11       25.11       25.11       25.10    
        25.10       25.10       25.10       25.09       25.09       25.09       25.08       25.08       25.08       25.07    
        25.07       25.07       25.06       25.06       25.06       25.05       25.05       25.05       25.04       25.04    
        25.03       25.03       25.03       25.02       25.02       25.02       25.01       25.01       25.00       25.00    
  38    25.08       25.08       25.08       25.07       25.07       25.07       25.07       25.07       25.07       25.07    
        25.07       25.07       25.06       25.06       25.06       25.06       25.06       25.05       25.05       25.05    
        25.05       25.04       25.04       25.04       25.04       25.04       25.03       25.03       25.03       25.03    
        25.02       25.02       25.02       25.02       25.01       25.01       25.01       25.01       25.00       25.00    
  39    25.04       25.04       25.04       25.04       25.04       25.04       25.04       25.04       25.04       25.03    
        25.03       25.03       25.03       25.03       25.03       25.03       25.03       25.03       25.03       25.02    
        25.02       25.02       25.02       25.02       25.02       25.02       25.02       25.02       25.01       25.01    
        25.01       25.01       25.01       25.01       25.01       25.01       25.00       25.00       25.00       25.00    
  40    25.00       25.00       25.00       25.00       25.00       25.00       25.00       25.00       25.00       25.00    
        25.00       25.00       25.00       25.00       25.00       25.00       25.00       25.00       25.00       25.00    
        25.00       25.00       25.00       25.00       25.00       25.00       25.00       25.00       25.00       25.00    
        25.00       25.00       25.00       25.00       25.00       25.00       25.00       25.00       25.00       25.00    
1
              HEAD IN LAYER  11 AT END OF TIME STEP  17 IN STRESS PERIOD    3
  ---------------------------------------------------------------------------

            1           2           3           4           5           6           7           8           9          10
           11          12          13          14          15          16          17          18          19          20
           21          22          23          24          25          26          27          28          29          30
           31          32          33          34          35          36          37          38          39          40
 ........................................................................................................................
   1    50.38       48.95       46.06       43.39       41.14       39.24       37.62       36.19       34.92       33.80    
        32.80       31.91       31.11       30.38       29.71       29.12       28.59       28.12       27.70       27.34    
        27.01       26.72       26.47       26.25       26.06       25.89       25.75       25.62       25.50       25.38    
        25.34       25.30       25.27       25.23       25.19       25.15       25.11       25.08       25.04       25.00    
   2    48.95       47.70       45.15       42.77       40.71       38.94       37.39       36.01       34.78       33.69    
        32.71       31.83       31.04       30.33       29.67       29.08       28.56       28.10       27.68       27.32    
        27.00       26.71       26.46       26.25       26.05       25.89       25.74       25.61       25.49       25.38    
        25.34       25.30       25.27       25.23       25.19       25.15       25.11       25.08       25.04       25.00    
   3    46.06       45.15       43.46       41.65       39.92       38.36       36.95       35.66       34.51       33.47    
        32.53       31.68       30.91       30.22       29.58       29.01       28.50       28.04       27.64       27.28    
        26.97       26.69       26.44       26.23       26.04       25.88       25.73       25.61       25.49       25.37    
        25.34       25.30       25.27       25.23       25.19       25.15       25.11       25.08       25.04       25.00    
   4    43.39       42.77       41.65       40.31       38.93       37.61       36.37       35.21       34.14       33.17    
        32.28       31.47       30.73       30.06       29.45       28.90       28.41       27.97       27.58       27.23    
        26.92       26.65       26.41       26.20       26.02       25.86       25.72       25.60       25.48       25.37    
        25.34       25.30       25.26       25.23       25.19       25.15       25.11       25.07       25.04       25.00    
   5    41.14       40.71       39.92       38.93       37.85       36.75       35.67       34.64       33.68       32.79    
        31.96       31.20       30.50       29.87       29.29       28.77       28.30       27.88       27.50       27.17    
        26.87       26.60       26.37       26.17       25.99       25.84       25.70       25.58       25.48       25.38    
        25.34       25.30       25.26       25.23       25.19       25.15       25.11       25.07       25.04       25.00    
   6    39.24       38.94       38.36       37.61       36.75       35.83       34.91       34.02       33.17       32.36    
        31.60       30.89       30.25       29.65       29.11       28.61       28.17       27.77       27.41       27.09    
        26.80       26.55       26.33       26.13       25.96       25.81       25.68       25.57       25.47       25.40    
        25.35       25.30       25.26       25.22       25.19       25.15       25.11       25.07       25.04       25.00    
   7    37.62       37.39       36.95       36.37       35.67       34.91       34.14       33.37       32.61       31.89    
        31.20       30.55       29.96       29.41       28.90       28.44       28.02       27.64       27.30       27.00    
        26.72       26.48       26.27       26.09       25.92       25.78       25.65       25.55       25.45       25.39    
        25.34       25.30       25.26       25.22       25.18       25.15       25.11       25.07       25.04       25.00    
   8    36.19       36.01       35.66       35.21       34.64       34.02       33.37       32.70       32.04       31.40    
        30.79       30.20       29.65       29.14       28.67       28.25       27.85       27.50       27.18       26.90    
        26.64       26.41       26.21       26.04       25.88       25.74       25.62       25.51       25.41       25.37    
        25.33       25.29       25.25       25.22       25.18       25.14       25.11       25.07       25.04       25.00    
   9    34.92       34.78       34.51       34.14       33.68       33.17       32.61       32.04       31.47       30.91    
        30.36       29.83       29.33       28.87       28.44       28.04       27.68       27.35       27.06       26.79    
        26.55       26.34       26.15       25.98       25.84       25.71       25.59       25.49       25.38       25.36    
        25.32       25.29       25.25       25.21       25.18       25.14       25.11       25.07       25.04       25.00    
  10    33.80       33.69       33.47       33.17       32.79       32.36       31.89       31.40       30.91       30.41    
        29.92       29.45       29.00       28.58       28.19       27.83       27.50       27.20       26.92       26.68    
        26.46       26.26       26.08       25.93       25.79       25.67       25.56       25.46       25.37       25.35    
        25.31       25.28       25.24       25.21       25.17       25.14       25.10       25.07       25.03       25.00    
  11    32.80       32.71       32.53       32.28       31.96       31.60       31.20       30.79       30.36       29.92    
        29.49       29.07       28.68       28.30       27.95       27.62       27.32       27.04       26.79       26.56    
        26.36       26.18       26.01       25.87       25.74       25.62       25.52       25.41       25.37       25.34    
        25.31       25.27       25.24       25.20       25.17       25.13       25.10       25.07       25.03       25.00    
  12    31.91       31.83       31.68       31.47       31.20       30.89       30.55       30.20       29.83       29.45    
        29.07       28.71       28.35       28.02       27.70       27.41       27.13       26.88       26.65       26.45    
        26.26       26.09       25.94       25.81       25.69       25.58       25.49       25.39       25.36       25.33    
        25.30       25.26       25.23       25.20       25.16       25.13       25.10       25.07       25.03       25.00    
  13    31.11       31.04       30.91       30.73       30.50       30.25       29.96       29.65       29.33       29.00    
        28.68       28.35       28.04       27.74       27.46       27.20       26.95       26.73       26.52       26.33    
        26.16       26.01       25.87       25.75       25.64       25.54       25.46       25.40       25.36       25.32    
        25.29       25.26       25.22       25.19       25.16       25.13       25.10       25.06       25.03       25.00    
  14    30.38       30.33       30.22       30.06       29.87       29.65       29.41       29.14       28.87       28.58    
        28.30       28.02       27.74       27.48       27.23       27.00       26.78       26.57       26.39       26.22    
        26.07       25.93       25.80       25.69       25.59       25.50       25.41       25.38       25.35       25.31    
        25.28       25.25       25.22       25.19       25.15       25.12       25.09       25.06       25.03       25.00    
  15    29.71       29.67       29.58       29.45       29.29       29.11       28.90       28.67       28.44       28.19    
        27.95       27.70       27.46       27.23       27.01       26.80       26.61       26.43       26.26       26.11    
        25.97       25.85       25.73       25.63       25.54       25.46       25.38       25.36       25.33       25.30    
        25.27       25.24       25.21       25.18       25.15       25.12       25.09       25.06       25.03       25.00    
  16    29.12       29.08       29.01       28.90       28.77       28.61       28.44       28.25       28.04       27.83    
        27.62       27.41       27.20       27.00       26.80       26.62       26.45       26.29       26.14       26.01    
        25.88       25.77       25.67       25.58       25.50       25.41       25.38       25.35       25.32       25.29    
        25.26       25.23       25.20       25.17       25.15       25.12       25.09       25.06       25.03       25.00    
  17    28.59       28.56       28.50       28.41       28.30       28.17       28.02       27.85       27.68       27.50    
        27.32       27.13       26.95       26.78       26.61       26.45       26.30       26.16       26.03       25.91    
        25.80       25.70       25.61       25.53       25.46       25.41       25.37       25.34       25.31       25.28    
        25.25       25.23       25.20       25.17       25.14       25.11       25.08       25.06       25.03       25.00    
  18    28.12       28.10       28.04       27.97       27.88       27.77       27.64       27.50       27.35       27.20    
        27.04       26.88       26.73       26.57       26.43       26.29       26.16       26.03       25.92       25.82    
        25.72       25.63       25.55       25.48       25.41       25.39       25.36       25.33       25.30       25.27    
        25.25       25.22       25.19       25.16       25.13       25.11       25.08       25.05       25.03       25.00    
  19    27.70       27.68       27.64       27.58       27.50       27.41       27.30       27.18       27.06       26.92    
        26.79       26.65       26.52       26.39       26.26       26.14       26.03       25.92       25.82       25.73    
        25.65       25.58       25.51       25.43       25.40       25.38       25.35       25.32       25.29       25.26    
        25.24       25.21       25.18       25.16       25.13       25.10       25.08       25.05       25.03       25.00    
  20    27.34       27.32       27.28       27.23       27.17       27.09       27.00       26.90       26.79       26.68    
        26.56       26.45       26.33       26.22       26.11       26.01       25.91       25.82       25.73       25.66    
        25.59       25.53       25.47       25.43       25.39       25.36       25.33       25.31       25.28       25.25    
        25.23       25.20       25.17       25.15       25.12       25.10       25.07       25.05       25.02       25.00    
  21    27.01       27.00       26.97       26.92       26.87       26.80       26.72       26.64       26.55       26.46    
        26.36       26.26       26.16       26.07       25.97       25.88       25.80       25.72       25.65       25.59    
        25.53       25.49       25.45       25.41       25.38       25.35       25.32       25.29       25.27       25.24    
        25.22       25.19       25.17       25.14       25.12       25.09       25.07       25.05       25.02       25.00    
  22    26.72       26.71       26.69       26.65       26.60       26.55       26.48       26.41       26.34       26.26    
        26.18       26.09       26.01       25.93       25.85       25.77       25.70       25.63       25.58       25.53    
        25.49       25.46       25.42       25.39       25.36       25.33       25.30       25.28       25.25       25.23    
        25.21       25.18       25.16       25.14       25.11       25.09       25.07       25.04       25.02       25.00    
  23    26.47       26.46       26.44       26.41       26.37       26.33       26.27       26.21       26.15       26.08    
        26.01       25.94       25.87       25.80       25.73       25.67       25.61       25.55       25.51       25.47    
        25.45       25.42       25.39       25.37       25.34       25.31       25.29       25.26       25.24       25.22    
        25.19       25.17       25.15       25.13       25.11       25.09       25.06       25.04       25.02       25.00    
  24    26.25       26.25       26.23       26.20       26.17       26.13       26.09       26.04       25.98       25.93    
        25.87       25.81       25.75       25.69       25.63       25.58       25.53       25.48       25.43       25.43    
        25.41       25.39       25.37       25.34       25.32       25.29       25.27       25.25       25.23       25.21    
        25.18       25.16       25.14       25.12       25.10       25.08       25.06       25.04       25.02       25.00    
  25    26.06       26.05       26.04       26.02       25.99       25.96       25.92       25.88       25.84       25.79    
        25.74       25.69       25.64       25.59       25.54       25.50       25.46       25.41       25.40       25.39    
        25.38       25.36       25.34       25.32       25.30       25.28       25.25       25.23       25.21       25.19    
        25.17       25.15       25.13       25.11       25.09       25.08       25.06       25.04       25.02       25.00    
  26    25.89       25.89       25.88       25.86       25.84       25.81       25.78       25.74       25.71       25.67    
        25.62       25.58       25.54       25.50       25.46       25.41       25.41       25.39       25.38       25.36    
        25.35       25.33       25.31       25.29       25.28       25.26       25.24       25.22       25.20       25.18    
        25.16       25.14       25.12       25.11       25.09       25.07       25.05       25.04       25.02       25.00    
  27    25.75       25.74       25.73       25.72       25.70       25.68       25.65       25.62       25.59       25.56    
        25.52       25.49       25.46       25.41       25.38       25.38       25.37       25.36       25.35       25.33    
        25.32       25.30       25.29       25.27       25.25       25.24       25.22       25.20       25.18       25.17    
        25.15       25.13       25.12       25.10       25.08       25.07       25.05       25.03       25.02       25.00    
  28    25.62       25.61       25.61       25.60       25.58       25.57       25.55       25.51       25.49       25.46    
        25.41       25.39       25.40       25.38       25.36       25.35       25.34       25.33       25.32       25.31    
        25.29       25.28       25.26       25.25       25.23       25.22       25.20       25.19       25.17       25.15    
        25.14       25.12       25.11       25.09       25.08       25.06       25.05       25.03       25.02       25.00    
  29    25.50       25.49       25.49       25.48       25.48       25.47       25.45       25.41       25.38       25.37    
        25.37       25.36       25.36       25.35       25.33       25.32       25.31       25.30       25.29       25.28    
        25.27       25.25       25.24       25.23       25.21       25.20       25.18       25.17       25.16       25.14    
        25.13       25.11       25.10       25.08       25.07       25.06       25.04       25.03       25.01       25.00    
  30    25.38       25.38       25.37       25.37       25.38       25.40       25.39       25.37       25.36       25.35    
        25.34       25.33       25.32       25.31       25.30       25.29       25.28       25.27       25.26       25.25    
        25.24       25.23       25.22       25.21       25.19       25.18       25.17       25.15       25.14       25.13    
        25.12       25.10       25.09       25.08       25.06       25.05       25.04       25.03       25.01       25.00    
  31    25.34       25.34       25.34       25.34       25.34       25.35       25.34       25.33       25.32       25.31    
        25.31       25.30       25.29       25.28       25.27       25.26       25.25       25.25       25.24       25.23    
        25.22       25.21       25.19       25.18       25.17       25.16       25.15       25.14       25.13       25.12    
        25.10       25.09       25.08       25.07       25.06       25.05       25.03       25.02       25.01       25.00    
  32    25.30       25.30       25.30       25.30       25.30       25.30       25.30       25.29       25.29       25.28    
        25.27       25.26       25.26       25.25       25.24       25.23       25.23       25.22       25.21       25.20    
        25.19       25.18       25.17       25.16       25.15       25.14       25.13       25.12       25.11       25.10    
        25.09       25.08       25.07       25.06       25.05       25.04       25.03       25.02       25.01       25.00    
  33    25.27       25.27       25.27       25.26       25.26       25.26       25.26       25.25       25.25       25.24    
        25.24       25.23       25.22       25.22       25.21       25.20       25.20       25.19       25.18       25.17    
        25.17       25.16       25.15       25.14       25.13       25.12       25.12       25.11       25.10       25.09    
        25.08       25.07       25.06       25.05       25.04       25.04       25.03       25.02       25.01       25.00    
  34    25.23       25.23       25.23       25.23       25.23       25.22       25.22       25.22       25.21       25.21    
        25.20       25.20       25.19       25.19       25.18       25.17       25.17       25.16       25.16       25.15    
        25.14       25.14       25.13       25.12       25.11       25.11       25.10       25.09       25.08       25.08    
        25.07       25.06       25.05       25.05       25.04       25.03       25.02       25.02       25.01       25.00    
  35    25.19       25.19       25.19       25.19       25.19       25.19       25.18       25.18       25.18       25.17    
        25.17       25.16       25.16       25.15       25.15       25.15       25.14       25.13       25.13       25.12    
        25.12       25.11       25.11       25.10       25.09       25.09       25.08       25.08       25.07       25.06    
        25.06       25.05       25.04       25.04       25.03       25.03       25.02       25.01       25.01       25.00    
  36    25.15       25.15       25.15       25.15       25.15       25.15       25.15       25.14       25.14       25.14    
        25.13       25.13       25.13       25.12       25.12       25.12       25.11       25.11       25.10       25.10    
        25.09       25.09       25.09       25.08       25.08       25.07       25.07       25.06       25.06       25.05    
        25.05       25.04       25.04       25.03       25.03       25.02       25.02       25.01       25.01       25.00    
  37    25.11       25.11       25.11       25.11       25.11       25.11       25.11       25.11       25.11       25.10    
        25.10       25.10       25.10       25.09       25.09       25.09       25.08       25.08       25.08       25.07    
        25.07       25.07       25.06       25.06       25.06       25.05       25.05       25.05       25.04       25.04    
        25.03       25.03       25.03       25.02       25.02       25.02       25.01       25.01       25.00       25.00    
  38    25.08       25.08       25.08       25.07       25.07       25.07       25.07       25.07       25.07       25.07    
        25.07       25.07       25.06       25.06       25.06       25.06       25.06       25.05       25.05       25.05    
        25.05       25.04       25.04       25.04       25.04       25.04       25.03       25.03       25.03       25.03    
        25.02       25.02       25.02       25.02       25.01       25.01       25.01       25.01       25.00       25.00    
  39    25.04       25.04       25.04       25.04       25.04       25.04       25.04       25.04       25.04       25.03    
        25.03       25.03       25.03       25.03       25.03       25.03       25.03       25.03       25.03       25.02    
        25.02       25.02       25.02       25.02       25.02       25.02       25.02       25.02       25.01       25.01    
        25.01       25.01       25.01       25.01       25.01       25.01       25.00       25.00       25.00       25.00    
  40    25.00       25.00       25.00       25.00       25.00       25.00       25.00       25.00       25.00       25.00    
        25.00       25.00       25.00       25.00       25.00       25.00       25.00       25.00       25.00       25.00    
        25.00       25.00       25.00       25.00       25.00       25.00       25.00       25.00       25.00       25.00    
        25.00       25.00       25.00       25.00       25.00       25.00       25.00       25.00       25.00       25.00    
1
              HEAD IN LAYER  12 AT END OF TIME STEP  17 IN STRESS PERIOD    3
  ---------------------------------------------------------------------------

            1           2           3           4           5           6           7           8           9          10
           11          12          13          14          15          16          17          18          19          20
           21          22          23          24          25          26          27          28          29          30
           31          32          33          34          35          36          37          38          39          40
 ........................................................................................................................
   1    50.11       48.71       45.98       43.37       41.13       39.24       37.61       36.19       34.92       33.80    
        32.80       31.91       31.11       30.38       29.72       29.12       28.59       28.12       27.71       27.34    
        27.01       26.73       26.48       26.26       26.06       25.90       25.75       25.62       25.50       25.38    
        25.34       25.30       25.27       25.23       25.19       25.15       25.11       25.08       25.04       25.00    
   2    48.71       47.48       45.08       42.75       40.70       38.93       37.38       36.01       34.78       33.69    
        32.71       31.83       31.04       30.33       29.67       29.08       28.56       28.10       27.69       27.32    
        27.00       26.71       26.46       26.25       26.06       25.89       25.74       25.61       25.49       25.38    
        25.34       25.30       25.27       25.23       25.19       25.15       25.11       25.08       25.04       25.00    
   3    45.98       45.08       43.43       41.64       39.92       38.36       36.95       35.66       34.51       33.48    
        32.53       31.68       30.92       30.22       29.58       29.01       28.50       28.05       27.64       27.28    
        26.97       26.69       26.44       26.23       26.04       25.88       25.73       25.61       25.49       25.38    
        25.34       25.30       25.27       25.23       25.19       25.15       25.11       25.08       25.04       25.00    
   4    43.37       42.75       41.64       40.30       38.93       37.61       36.36       35.21       34.14       33.17    
        32.28       31.47       30.73       30.06       29.46       28.91       28.41       27.97       27.58       27.23    
        26.93       26.65       26.41       26.20       26.02       25.86       25.72       25.60       25.49       25.38    
        25.34       25.30       25.26       25.23       25.19       25.15       25.11       25.07       25.04       25.00    
   5    41.13       40.70       39.92       38.93       37.84       36.74       35.67       34.64       33.69       32.79    
        31.97       31.20       30.50       29.87       29.30       28.77       28.30       27.88       27.50       27.17    
        26.87       26.61       26.38       26.17       25.99       25.84       25.70       25.59       25.48       25.38    
        25.34       25.30       25.26       25.23       25.19       25.15       25.11       25.07       25.04       25.00    
   6    39.24       38.93       38.36       37.61       36.74       35.83       34.91       34.02       33.17       32.36    
        31.60       30.90       30.25       29.65       29.11       28.62       28.17       27.77       27.41       27.09    
        26.80       26.55       26.33       26.13       25.96       25.81       25.68       25.57       25.47       25.40    
        25.35       25.30       25.26       25.22       25.19       25.15       25.11       25.07       25.04       25.00    
   7    37.61       37.38       36.95       36.36       35.67       34.91       34.14       33.37       32.61       31.89    
        31.20       30.55       29.96       29.41       28.90       28.44       28.02       27.64       27.30       27.00    
        26.73       26.49       26.27       26.09       25.92       25.78       25.66       25.55       25.46       25.39    
        25.34       25.30       25.26       25.22       25.18       25.15       25.11       25.07       25.04       25.00    
   8    36.19       36.01       35.66       35.21       34.64       34.02       33.37       32.70       32.04       31.40    
        30.79       30.20       29.65       29.15       28.68       28.25       27.86       27.50       27.18       26.90    
        26.64       26.42       26.22       26.04       25.88       25.75       25.62       25.52       25.42       25.37    
        25.33       25.29       25.25       25.22       25.18       25.14       25.11       25.07       25.04       25.00    
   9    34.92       34.78       34.51       34.14       33.69       33.17       32.61       32.04       31.47       30.91    
        30.36       29.83       29.33       28.87       28.44       28.04       27.68       27.35       27.06       26.79    
        26.55       26.34       26.15       25.98       25.84       25.71       25.59       25.49       25.39       25.36    
        25.32       25.29       25.25       25.21       25.18       25.14       25.11       25.07       25.04       25.00    
  10    33.80       33.69       33.48       33.17       32.79       32.36       31.89       31.40       30.91       30.42    
        29.92       29.45       29.01       28.59       28.20       27.83       27.50       27.20       26.93       26.68    
        26.46       26.26       26.08       25.93       25.79       25.67       25.56       25.46       25.37       25.35    
        25.31       25.28       25.24       25.21       25.17       25.14       25.10       25.07       25.03       25.00    
  11    32.80       32.71       32.53       32.28       31.97       31.60       31.20       30.79       30.36       29.92    
        29.49       29.08       28.68       28.30       27.95       27.62       27.32       27.04       26.79       26.56    
        26.36       26.18       26.01       25.87       25.74       25.63       25.52       25.42       25.37       25.34    
        25.31       25.27       25.24       25.20       25.17       25.13       25.10       25.07       25.03       25.00    
  12    31.91       31.83       31.68       31.47       31.20       30.90       30.55       30.20       29.83       29.45    
        29.08       28.71       28.36       28.02       27.70       27.41       27.14       26.89       26.66       26.45    
        26.26       26.09       25.94       25.81       25.69       25.58       25.49       25.40       25.37       25.33    
        25.30       25.26       25.23       25.20       25.16       25.13       25.10       25.07       25.03       25.00    
  13    31.11       31.04       30.92       30.73       30.50       30.25       29.96       29.65       29.33       29.01    
        28.68       28.36       28.05       27.75       27.47       27.20       26.96       26.73       26.52       26.33    
        26.16       26.01       25.87       25.75       25.64       25.54       25.46       25.40       25.36       25.32    
        25.29       25.26       25.22       25.19       25.16       25.13       25.10       25.06       25.03       25.00    
  14    30.38       30.33       30.22       30.06       29.87       29.65       29.41       29.15       28.87       28.59    
        28.30       28.02       27.75       27.48       27.23       27.00       26.78       26.58       26.39       26.22    
        26.07       25.93       25.80       25.69       25.59       25.50       25.41       25.38       25.35       25.31    
        25.28       25.25       25.22       25.19       25.15       25.12       25.09       25.06       25.03       25.00    
  15    29.72       29.67       29.58       29.46       29.30       29.11       28.90       28.68       28.44       28.20    
        27.95       27.70       27.47       27.23       27.01       26.81       26.61       26.43       26.26       26.11    
        25.97       25.85       25.74       25.64       25.54       25.46       25.39       25.36       25.33       25.30    
        25.27       25.24       25.21       25.18       25.15       25.12       25.09       25.06       25.03       25.00    
  16    29.12       29.08       29.01       28.91       28.77       28.62       28.44       28.25       28.04       27.83    
        27.62       27.41       27.20       27.00       26.81       26.62       26.45       26.29       26.14       26.01    
        25.88       25.77       25.67       25.58       25.50       25.42       25.38       25.35       25.32       25.29    
        25.26       25.23       25.20       25.17       25.15       25.12       25.09       25.06       25.03       25.00    
  17    28.59       28.56       28.50       28.41       28.30       28.17       28.02       27.86       27.68       27.50    
        27.32       27.14       26.96       26.78       26.61       26.45       26.30       26.16       26.03       25.91    
        25.80       25.70       25.61       25.53       25.46       25.41       25.37       25.34       25.31       25.28    
        25.25       25.23       25.20       25.17       25.14       25.11       25.08       25.06       25.03       25.00    
  18    28.12       28.10       28.05       27.97       27.88       27.77       27.64       27.50       27.35       27.20    
        27.04       26.89       26.73       26.58       26.43       26.29       26.16       26.04       25.92       25.82    
        25.72       25.64       25.56       25.48       25.42       25.39       25.36       25.33       25.30       25.27    
        25.25       25.22       25.19       25.16       25.13       25.11       25.08       25.05       25.03       25.00    
  19    27.71       27.69       27.64       27.58       27.50       27.41       27.30       27.18       27.06       26.93    
        26.79       26.66       26.52       26.39       26.26       26.14       26.03       25.92       25.82       25.73    
        25.65       25.58       25.51       25.44       25.40       25.38       25.35       25.32       25.29       25.26    
        25.24       25.21       25.18       25.16       25.13       25.10       25.08       25.05       25.03       25.00    
  20    27.34       27.32       27.28       27.23       27.17       27.09       27.00       26.90       26.79       26.68    
        26.56       26.45       26.33       26.22       26.11       26.01       25.91       25.82       25.73       25.66    
        25.59       25.53       25.48       25.43       25.39       25.36       25.33       25.31       25.28       25.25    
        25.23       25.20       25.17       25.15       25.12       25.10       25.07       25.05       25.02       25.00    
  21    27.01       27.00       26.97       26.93       26.87       26.80       26.73       26.64       26.55       26.46    
        26.36       26.26       26.16       26.07       25.97       25.88       25.80       25.72       25.65       25.59    
        25.54       25.49       25.45       25.41       25.38       25.35       25.32       25.29       25.27       25.24    
        25.22       25.19       25.17       25.14       25.12       25.09       25.07       25.05       25.02       25.00    
  22    26.73       26.71       26.69       26.65       26.61       26.55       26.49       26.42       26.34       26.26    
        26.18       26.09       26.01       25.93       25.85       25.77       25.70       25.64       25.58       25.53    
        25.49       25.46       25.42       25.39       25.36       25.33       25.30       25.28       25.25       25.23    
        25.21       25.18       25.16       25.14       25.11       25.09       25.07       25.04       25.02       25.00    
  23    26.48       26.46       26.44       26.41       26.38       26.33       26.27       26.22       26.15       26.08    
        26.01       25.94       25.87       25.80       25.74       25.67       25.61       25.56       25.51       25.48    
        25.45       25.42       25.39       25.37       25.34       25.31       25.29       25.26       25.24       25.22    
        25.19       25.17       25.15       25.13       25.11       25.09       25.06       25.04       25.02       25.00    
  24    26.26       26.25       26.23       26.20       26.17       26.13       26.09       26.04       25.98       25.93    
        25.87       25.81       25.75       25.69       25.64       25.58       25.53       25.48       25.44       25.43    
        25.41       25.39       25.37       25.34       25.32       25.29       25.27       25.25       25.23       25.21    
        25.18       25.16       25.14       25.12       25.10       25.08       25.06       25.04       25.02       25.00    
  25    26.06       26.06       26.04       26.02       25.99       25.96       25.92       25.88       25.84       25.79    
        25.74       25.69       25.64       25.59       25.54       25.50       25.46       25.42       25.40       25.39    
        25.38       25.36       25.34       25.32       25.30       25.28       25.25       25.23       25.21       25.19    
        25.17       25.15       25.13       25.11       25.09       25.08       25.06       25.04       25.02       25.00    
  26    25.90       25.89       25.88       25.86       25.84       25.81       25.78       25.75       25.71       25.67    
        25.63       25.58       25.54       25.50       25.46       25.42       25.41       25.39       25.38       25.36    
        25.35       25.33       25.31       25.29       25.28       25.26       25.24       25.22       25.20       25.18    
        25.16       25.14       25.12       25.11       25.09       25.07       25.05       25.04       25.02       25.00    
  27    25.75       25.74       25.73       25.72       25.70       25.68       25.66       25.62       25.59       25.56    
        25.52       25.49       25.46       25.41       25.39       25.38       25.37       25.36       25.35       25.33    
        25.32       25.30       25.29       25.27       25.25       25.24       25.22       25.20       25.18       25.17    
        25.15       25.13       25.12       25.10       25.08       25.07       25.05       25.03       25.02       25.00    
  28    25.62       25.61       25.61       25.60       25.59       25.57       25.55       25.52       25.49       25.46    
        25.42       25.40       25.40       25.38       25.36       25.35       25.34       25.33       25.32       25.31    
        25.29       25.28       25.26       25.25       25.23       25.22       25.20       25.19       25.17       25.15    
        25.14       25.12       25.11       25.09       25.08       25.06       25.05       25.03       25.02       25.00    
  29    25.50       25.49       25.49       25.49       25.48       25.47       25.46       25.42       25.39       25.37    
        25.37       25.37       25.36       25.35       25.33       25.32       25.31       25.30       25.29       25.28    
        25.27       25.25       25.24       25.23       25.21       25.20       25.18       25.17       25.16       25.14    
        25.13       25.11       25.10       25.08       25.07       25.06       25.04       25.03       25.01       25.00    
  30    25.38       25.38       25.38       25.38       25.38       25.40       25.39       25.37       25.36       25.35    
        25.34       25.33       25.32       25.31       25.30       25.29       25.28       25.27       25.26       25.25    
        25.24       25.23       25.22       25.21       25.19       25.18       25.17       25.15       25.14       25.13    
        25.12       25.10       25.09       25.08       25.06       25.05       25.04       25.03       25.01       25.00    
  31    25.34       25.34       25.34       25.34       25.34       25.35       25.34       25.33       25.32       25.31    
        25.31       25.30       25.29       25.28       25.27       25.26       25.25       25.25       25.24       25.23    
        25.22       25.21       25.19       25.18       25.17       25.16       25.15       25.14       25.13       25.12    
        25.10       25.09       25.08       25.07       25.06       25.05       25.03       25.02       25.01       25.00    
  32    25.30       25.30       25.30       25.30       25.30       25.30       25.30       25.29       25.29       25.28    
        25.27       25.26       25.26       25.25       25.24       25.23       25.23       25.22       25.21       25.20    
        25.19       25.18       25.17       25.16       25.15       25.14       25.13       25.12       25.11       25.10    
        25.09       25.08       25.07       25.06       25.05       25.04       25.03       25.02       25.01       25.00    
  33    25.27       25.27       25.27       25.26       25.26       25.26       25.26       25.25       25.25       25.24    
        25.24       25.23       25.22       25.22       25.21       25.20       25.20       25.19       25.18       25.17    
        25.17       25.16       25.15       25.14       25.13       25.12       25.12       25.11       25.10       25.09    
        25.08       25.07       25.06       25.05       25.04       25.04       25.03       25.02       25.01       25.00    
  34    25.23       25.23       25.23       25.23       25.23       25.22       25.22       25.22       25.21       25.21    
        25.20       25.20       25.19       25.19       25.18       25.17       25.17       25.16       25.16       25.15    
        25.14       25.14       25.13       25.12       25.11       25.11       25.10       25.09       25.08       25.08    
        25.07       25.06       25.05       25.05       25.04       25.03       25.02       25.02       25.01       25.00    
  35    25.19       25.19       25.19       25.19       25.19       25.19       25.18       25.18       25.18       25.17    
        25.17       25.16       25.16       25.15       25.15       25.15       25.14       25.13       25.13       25.12    
        25.12       25.11       25.11       25.10       25.09       25.09       25.08       25.08       25.07       25.06    
        25.06       25.05       25.04       25.04       25.03       25.03       25.02       25.01       25.01       25.00    
  36    25.15       25.15       25.15       25.15       25.15       25.15       25.15       25.14       25.14       25.14    
        25.13       25.13       25.13       25.12       25.12       25.12       25.11       25.11       25.10       25.10    
        25.09       25.09       25.09       25.08       25.08       25.07       25.07       25.06       25.06       25.05    
        25.05       25.04       25.04       25.03       25.03       25.02       25.02       25.01       25.01       25.00    
  37    25.11       25.11       25.11       25.11       25.11       25.11       25.11       25.11       25.11       25.10    
        25.10       25.10       25.10       25.09       25.09       25.09       25.08       25.08       25.08       25.07    
        25.07       25.07       25.06       25.06       25.06       25.05       25.05       25.05       25.04       25.04    
        25.03       25.03       25.03       25.02       25.02       25.02       25.01       25.01       25.00       25.00    
  38    25.08       25.08       25.08       25.07       25.07       25.07       25.07       25.07       25.07       25.07    
        25.07       25.07       25.06       25.06       25.06       25.06       25.06       25.05       25.05       25.05    
        25.05       25.04       25.04       25.04       25.04       25.04       25.03       25.03       25.03       25.03    
        25.02       25.02       25.02       25.02       25.01       25.01       25.01       25.01       25.00       25.00    
  39    25.04       25.04       25.04       25.04       25.04       25.04       25.04       25.04       25.04       25.03    
        25.03       25.03       25.03       25.03       25.03       25.03       25.03       25.03       25.03       25.02    
        25.02       25.02       25.02       25.02       25.02       25.02       25.02       25.02       25.01       25.01    
        25.01       25.01       25.01       25.01       25.01       25.01       25.00       25.00       25.00       25.00    
  40    25.00       25.00       25.00       25.00       25.00       25.00       25.00       25.00       25.00       25.00    
        25.00       25.00       25.00       25.00       25.00       25.00       25.00       25.00       25.00       25.00    
        25.00       25.00       25.00       25.00       25.00       25.00       25.00       25.00       25.00       25.00    
        25.00       25.00       25.00       25.00       25.00       25.00       25.00       25.00       25.00       25.00    
1
              HEAD IN LAYER  13 AT END OF TIME STEP  17 IN STRESS PERIOD    3
  ---------------------------------------------------------------------------

            1           2           3           4           5           6           7           8           9          10
           11          12          13          14          15          16          17          18          19          20
           21          22          23          24          25          26          27          28          29          30
           31          32          33          34          35          36          37          38          39          40
 ........................................................................................................................
   1    49.94       48.56       45.93       43.35       41.13       39.24       37.61       36.19       34.92       33.80    
        32.80       31.91       31.11       30.38       29.72       29.12       28.59       28.12       27.71       27.34    
        27.01       26.73       26.48       26.26       26.06       25.90       25.75       25.62       25.50       25.39    
        25.34       25.30       25.27       25.23       25.19       25.15       25.11       25.08       25.04       25.00    
   2    48.56       47.35       45.03       42.73       40.70       38.93       37.38       36.01       34.78       33.69    
        32.71       31.83       31.04       30.33       29.67       29.09       28.56       28.10       27.69       27.32    
        27.00       26.72       26.47       26.25       26.06       25.89       25.74       25.61       25.50       25.39    
        25.34       25.30       25.27       25.23       25.19       25.15       25.11       25.08       25.04       25.00    
   3    45.93       45.03       43.41       41.63       39.92       38.36       36.95       35.66       34.51       33.48    
        32.54       31.68       30.92       30.22       29.58       29.01       28.50       28.05       27.64       27.29    
        26.97       26.69       26.45       26.23       26.04       25.88       25.74       25.61       25.49       25.38    
        25.34       25.30       25.27       25.23       25.19       25.15       25.11       25.08       25.04       25.00    
   4    43.35       42.73       41.63       40.29       38.92       37.61       36.36       35.20       34.14       33.17    
        32.28       31.47       30.73       30.07       29.46       28.91       28.42       27.98       27.58       27.24    
        26.93       26.65       26.42       26.21       26.02       25.86       25.72       25.60       25.49       25.38    
        25.34       25.30       25.26       25.23       25.19       25.15       25.11       25.07       25.04       25.00    
   5    41.13       40.70       39.92       38.92       37.84       36.74       35.67       34.64       33.69       32.79    
        31.97       31.20       30.50       29.87       29.30       28.78       28.30       27.88       27.50       27.17    
        26.87       26.61       26.38       26.17       26.00       25.84       25.70       25.59       25.48       25.39    
        25.34       25.30       25.26       25.23       25.19       25.15       25.11       25.07       25.04       25.00    
   6    39.24       38.93       38.36       37.61       36.74       35.83       34.91       34.02       33.17       32.36    
        31.60       30.90       30.25       29.65       29.11       28.62       28.17       27.77       27.41       27.09    
        26.80       26.55       26.33       26.13       25.96       25.81       25.68       25.57       25.47       25.40    
        25.35       25.30       25.26       25.22       25.19       25.15       25.11       25.07       25.04       25.00    
   7    37.61       37.38       36.95       36.36       35.67       34.91       34.14       33.37       32.62       31.89    
        31.20       30.55       29.96       29.41       28.90       28.44       28.02       27.64       27.30       27.00    
        26.73       26.49       26.28       26.09       25.93       25.78       25.66       25.55       25.46       25.39    
        25.34       25.30       25.26       25.22       25.18       25.15       25.11       25.07       25.04       25.00    
   8    36.19       36.01       35.66       35.20       34.64       34.02       33.37       32.70       32.04       31.40    
        30.79       30.20       29.66       29.15       28.68       28.25       27.86       27.50       27.19       26.90    
        26.64       26.42       26.22       26.04       25.88       25.75       25.62       25.52       25.42       25.37    
        25.33       25.29       25.25       25.22       25.18       25.14       25.11       25.07       25.04       25.00    
   9    34.92       34.78       34.51       34.14       33.69       33.17       32.62       32.04       31.47       30.91    
        30.36       29.83       29.34       28.87       28.44       28.05       27.68       27.36       27.06       26.79    
        26.55       26.34       26.15       25.99       25.84       25.71       25.59       25.49       25.39       25.36    
        25.32       25.29       25.25       25.21       25.18       25.14       25.11       25.07       25.04       25.00    
  10    33.80       33.69       33.48       33.17       32.79       32.36       31.89       31.40       30.91       30.42    
        29.93       29.45       29.01       28.59       28.20       27.84       27.50       27.20       26.93       26.68    
        26.46       26.26       26.08       25.93       25.79       25.67       25.56       25.46       25.38       25.35    
        25.31       25.28       25.24       25.21       25.17       25.14       25.10       25.07       25.03       25.00    
  11    32.80       32.71       32.54       32.28       31.97       31.60       31.20       30.79       30.36       29.93    
        29.50       29.08       28.68       28.30       27.95       27.62       27.32       27.04       26.79       26.57    
        26.36       26.18       26.01       25.87       25.74       25.63       25.52       25.42       25.37       25.34    
        25.31       25.27       25.24       25.20       25.17       25.13       25.10       25.07       25.03       25.00    
  12    31.91       31.83       31.68       31.47       31.20       30.90       30.55       30.20       29.83       29.45    
        29.08       28.71       28.36       28.02       27.71       27.41       27.14       26.89       26.66       26.45    
        26.26       26.09       25.94       25.81       25.69       25.59       25.49       25.40       25.37       25.33    
        25.30       25.26       25.23       25.20       25.16       25.13       25.10       25.07       25.03       25.00    
  13    31.11       31.04       30.92       30.73       30.50       30.25       29.96       29.66       29.34       29.01    
        28.68       28.36       28.05       27.75       27.47       27.20       26.96       26.73       26.52       26.33    
        26.16       26.01       25.87       25.75       25.64       25.54       25.46       25.40       25.36       25.32    
        25.29       25.26       25.22       25.19       25.16       25.13       25.10       25.06       25.03       25.00    
  14    30.38       30.33       30.22       30.07       29.87       29.65       29.41       29.15       28.87       28.59    
        28.30       28.02       27.75       27.49       27.24       27.00       26.78       26.58       26.39       26.22    
        26.07       25.93       25.80       25.69       25.59       25.50       25.42       25.38       25.35       25.31    
        25.28       25.25       25.22       25.19       25.15       25.12       25.09       25.06       25.03       25.00    
  15    29.72       29.67       29.58       29.46       29.30       29.11       28.90       28.68       28.44       28.20    
        27.95       27.71       27.47       27.24       27.02       26.81       26.61       26.43       26.27       26.11    
        25.97       25.85       25.74       25.64       25.54       25.46       25.39       25.36       25.33       25.30    
        25.27       25.24       25.21       25.18       25.15       25.12       25.09       25.06       25.03       25.00    
  16    29.12       29.09       29.01       28.91       28.78       28.62       28.44       28.25       28.05       27.84    
        27.62       27.41       27.20       27.00       26.81       26.62       26.45       26.29       26.14       26.01    
        25.89       25.77       25.67       25.58       25.50       25.42       25.38       25.35       25.32       25.29    
        25.26       25.23       25.20       25.17       25.15       25.12       25.09       25.06       25.03       25.00    
  17    28.59       28.56       28.50       28.42       28.30       28.17       28.02       27.86       27.68       27.50    
        27.32       27.14       26.96       26.78       26.61       26.45       26.30       26.16       26.03       25.91    
        25.80       25.70       25.61       25.53       25.46       25.41       25.37       25.34       25.31       25.28    
        25.25       25.23       25.20       25.17       25.14       25.11       25.08       25.06       25.03       25.00    
  18    28.12       28.10       28.05       27.98       27.88       27.77       27.64       27.50       27.36       27.20    
        27.04       26.89       26.73       26.58       26.43       26.29       26.16       26.04       25.92       25.82    
        25.72       25.64       25.56       25.48       25.42       25.39       25.36       25.33       25.30       25.27    
        25.25       25.22       25.19       25.16       25.13       25.11       25.08       25.05       25.03       25.00    
  19    27.71       27.69       27.64       27.58       27.50       27.41       27.30       27.19       27.06       26.93    
        26.79       26.66       26.52       26.39       26.27       26.14       26.03       25.92       25.83       25.74    
        25.65       25.58       25.51       25.44       25.40       25.38       25.35       25.32       25.29       25.26    
        25.24       25.21       25.18       25.16       25.13       25.10       25.08       25.05       25.03       25.00    
  20    27.34       27.32       27.29       27.24       27.17       27.09       27.00       26.90       26.79       26.68    
        26.57       26.45       26.33       26.22       26.11       26.01       25.91       25.82       25.74       25.66    
        25.59       25.53       25.48       25.43       25.39       25.36       25.33       25.31       25.28       25.25    
        25.23       25.20       25.17       25.15       25.12       25.10       25.07       25.05       25.02       25.00    
  21    27.01       27.00       26.97       26.93       26.87       26.80       26.73       26.64       26.55       26.46    
        26.36       26.26       26.16       26.07       25.97       25.89       25.80       25.72       25.65       25.59    
        25.54       25.49       25.45       25.41       25.38       25.35       25.32       25.29       25.27       25.24    
        25.22       25.19       25.17       25.14       25.12       25.09       25.07       25.05       25.02       25.00    
  22    26.73       26.72       26.69       26.65       26.61       26.55       26.49       26.42       26.34       26.26    
        26.18       26.09       26.01       25.93       25.85       25.77       25.70       25.64       25.58       25.53    
        25.49       25.46       25.42       25.39       25.36       25.33       25.30       25.28       25.25       25.23    
        25.21       25.18       25.16       25.14       25.11       25.09       25.07       25.04       25.02       25.00    
  23    26.48       26.47       26.45       26.42       26.38       26.33       26.28       26.22       26.15       26.08    
        26.01       25.94       25.87       25.80       25.74       25.67       25.61       25.56       25.51       25.48    
        25.45       25.42       25.39       25.37       25.34       25.31       25.29       25.26       25.24       25.22    
        25.19       25.17       25.15       25.13       25.11       25.09       25.06       25.04       25.02       25.00    
  24    26.26       26.25       26.23       26.21       26.17       26.13       26.09       26.04       25.99       25.93    
        25.87       25.81       25.75       25.69       25.64       25.58       25.53       25.48       25.44       25.43    
        25.41       25.39       25.37       25.34       25.32       25.29       25.27       25.25       25.23       25.21    
        25.18       25.16       25.14       25.12       25.10       25.08       25.06       25.04       25.02       25.00    
  25    26.06       26.06       26.04       26.02       26.00       25.96       25.93       25.88       25.84       25.79    
        25.74       25.69       25.64       25.59       25.54       25.50       25.46       25.42       25.40       25.39    
        25.38       25.36       25.34       25.32       25.30       25.28       25.25       25.23       25.21       25.19    
        25.17       25.15       25.13       25.11       25.09       25.08       25.06       25.04       25.02       25.00    
  26    25.90       25.89       25.88       25.86       25.84       25.81       25.78       25.75       25.71       25.67    
        25.63       25.59       25.54       25.50       25.46       25.42       25.41       25.39       25.38       25.36    
        25.35       25.33       25.31       25.29       25.28       25.26       25.24       25.22       25.20       25.18    
        25.16       25.14       25.12       25.11       25.09       25.07       25.05       25.04       25.02       25.00    
  27    25.75       25.74       25.74       25.72       25.70       25.68       25.66       25.62       25.59       25.56    
        25.52       25.49       25.46       25.42       25.39       25.38       25.37       25.36       25.35       25.33    
        25.32       25.30       25.29       25.27       25.25       25.24       25.22       25.20       25.18       25.17    
        25.15       25.13       25.12       25.10       25.08       25.07       25.05       25.03       25.02       25.00    
  28    25.62       25.61       25.61       25.60       25.59       25.57       25.55       25.52       25.49       25.46    
        25.42       25.40       25.40       25.38       25.36       25.35       25.34       25.33       25.32       25.31    
        25.29       25.28       25.26       25.25       25.23       25.22       25.20       25.19       25.17       25.15    
        25.14       25.12       25.11       25.09       25.08       25.06       25.05       25.03       25.02       25.00    
  29    25.50       25.50       25.49       25.49       25.48       25.47       25.46       25.42       25.39       25.38    
        25.37       25.37       25.36       25.35       25.33       25.32       25.31       25.30       25.29       25.28    
        25.27       25.25       25.24       25.23       25.21       25.20       25.18       25.17       25.16       25.14    
        25.13       25.11       25.10       25.08       25.07       25.06       25.04       25.03       25.01       25.00    
  30    25.39       25.39       25.38       25.38       25.39       25.40       25.39       25.37       25.36       25.35    
        25.34       25.33       25.32       25.31       25.30       25.29       25.28       25.27       25.26       25.25    
        25.24       25.23       25.22       25.21       25.19       25.18       25.17       25.15       25.14       25.13    
        25.12       25.10       25.09       25.08       25.06       25.05       25.04       25.03       25.01       25.00    
  31    25.34       25.34       25.34       25.34       25.34       25.35       25.34       25.33       25.32       25.31    
        25.31       25.30       25.29       25.28       25.27       25.26       25.25       25.25       25.24       25.23    
        25.22       25.21       25.19       25.18       25.17       25.16       25.15       25.14       25.13       25.12    
        25.10       25.09       25.08       25.07       25.06       25.05       25.03       25.02       25.01       25.00    
  32    25.30       25.30       25.30       25.30       25.30       25.30       25.30       25.29       25.29       25.28    
        25.27       25.26       25.26       25.25       25.24       25.23       25.23       25.22       25.21       25.20    
        25.19       25.18       25.17       25.16       25.15       25.14       25.13       25.12       25.11       25.10    
        25.09       25.08       25.07       25.06       25.05       25.04       25.03       25.02       25.01       25.00    
  33    25.27       25.27       25.27       25.26       25.26       25.26       25.26       25.25       25.25       25.24    
        25.24       25.23       25.22       25.22       25.21       25.20       25.20       25.19       25.18       25.17    
        25.17       25.16       25.15       25.14       25.13       25.12       25.12       25.11       25.10       25.09    
        25.08       25.07       25.06       25.05       25.04       25.04       25.03       25.02       25.01       25.00    
  34    25.23       25.23       25.23       25.23       25.23       25.22       25.22       25.22       25.21       25.21    
        25.20       25.20       25.19       25.19       25.18       25.17       25.17       25.16       25.16       25.15    
        25.14       25.14       25.13       25.12       25.11       25.11       25.10       25.09       25.08       25.08    
        25.07       25.06       25.05       25.05       25.04       25.03       25.02       25.02       25.01       25.00    
  35    25.19       25.19       25.19       25.19       25.19       25.19       25.18       25.18       25.18       25.17    
        25.17       25.16       25.16       25.15       25.15       25.15       25.14       25.13       25.13       25.12    
        25.12       25.11       25.11       25.10       25.09       25.09       25.08       25.08       25.07       25.06    
        25.06       25.05       25.04       25.04       25.03       25.03       25.02       25.01       25.01       25.00    
  36    25.15       25.15       25.15       25.15       25.15       25.15       25.15       25.14       25.14       25.14    
        25.13       25.13       25.13       25.12       25.12       25.12       25.11       25.11       25.10       25.10    
        25.09       25.09       25.09       25.08       25.08       25.07       25.07       25.06       25.06       25.05    
        25.05       25.04       25.04       25.03       25.03       25.02       25.02       25.01       25.01       25.00    
  37    25.11       25.11       25.11       25.11       25.11       25.11       25.11       25.11       25.11       25.10    
        25.10       25.10       25.10       25.09       25.09       25.09       25.08       25.08       25.08       25.07    
        25.07       25.07       25.06       25.06       25.06       25.05       25.05       25.05       25.04       25.04    
        25.03       25.03       25.03       25.02       25.02       25.02       25.01       25.01       25.00       25.00    
  38    25.08       25.08       25.08       25.07       25.07       25.07       25.07       25.07       25.07       25.07    
        25.07       25.07       25.06       25.06       25.06       25.06       25.06       25.05       25.05       25.05    
        25.05       25.04       25.04       25.04       25.04       25.04       25.03       25.03       25.03       25.03    
        25.02       25.02       25.02       25.02       25.01       25.01       25.01       25.01       25.00       25.00    
  39    25.04       25.04       25.04       25.04       25.04       25.04       25.04       25.04       25.04       25.03    
        25.03       25.03       25.03       25.03       25.03       25.03       25.03       25.03       25.03       25.02    
        25.02       25.02       25.02       25.02       25.02       25.02       25.02       25.02       25.01       25.01    
        25.01       25.01       25.01       25.01       25.01       25.01       25.00       25.00       25.00       25.00    
  40    25.00       25.00       25.00       25.00       25.00       25.00       25.00       25.00       25.00       25.00    
        25.00       25.00       25.00       25.00       25.00       25.00       25.00       25.00       25.00       25.00    
        25.00       25.00       25.00       25.00       25.00       25.00       25.00       25.00       25.00       25.00    
        25.00       25.00       25.00       25.00       25.00       25.00       25.00       25.00       25.00       25.00    
1
              HEAD IN LAYER  14 AT END OF TIME STEP  17 IN STRESS PERIOD    3
  ---------------------------------------------------------------------------

            1           2           3           4           5           6           7           8           9          10
           11          12          13          14          15          16          17          18          19          20
           21          22          23          24          25          26          27          28          29          30
           31          32          33          34          35          36          37          38          39          40
 ........................................................................................................................
   1    49.85       48.48       45.90       43.34       41.12       39.24       37.61       36.19       34.92       33.80    
        32.80       31.91       31.11       30.38       29.72       29.12       28.60       28.13       27.71       27.34    
        27.01       26.73       26.48       26.26       26.07       25.90       25.75       25.62       25.50       25.39    
        25.34       25.30       25.27       25.23       25.19       25.15       25.11       25.08       25.04       25.00    
   2    48.48       47.28       45.01       42.73       40.70       38.93       37.38       36.01       34.78       33.69    
        32.71       31.83       31.04       30.33       29.67       29.09       28.56       28.10       27.69       27.32    
        27.00       26.72       26.47       26.25       26.06       25.89       25.74       25.61       25.50       25.39    
        25.34       25.30       25.27       25.23       25.19       25.15       25.11       25.08       25.04       25.00    
   3    45.90       45.01       43.40       41.62       39.91       38.36       36.95       35.66       34.51       33.48    
        32.54       31.69       30.92       30.22       29.59       29.01       28.50       28.05       27.65       27.29    
        26.97       26.69       26.45       26.23       26.04       25.88       25.74       25.61       25.49       25.39    
        25.34       25.30       25.27       25.23       25.19       25.15       25.11       25.08       25.04       25.00    
   4    43.34       42.73       41.62       40.29       38.92       37.60       36.36       35.20       34.14       33.17    
        32.28       31.47       30.73       30.07       29.46       28.91       28.42       27.98       27.58       27.24    
        26.93       26.66       26.42       26.21       26.02       25.86       25.72       25.60       25.49       25.39    
        25.34       25.30       25.26       25.23       25.19       25.15       25.11       25.07       25.04       25.00    
   5    41.12       40.70       39.91       38.92       37.84       36.74       35.67       34.64       33.69       32.79    
        31.97       31.21       30.51       29.87       29.30       28.78       28.31       27.88       27.51       27.17    
        26.87       26.61       26.38       26.17       26.00       25.84       25.70       25.59       25.48       25.39    
        25.34       25.30       25.26       25.23       25.19       25.15       25.11       25.07       25.04       25.00    
   6    39.24       38.93       38.36       37.60       36.74       35.83       34.91       34.02       33.17       32.36    
        31.60       30.90       30.25       29.66       29.11       28.62       28.17       27.77       27.41       27.09    
        26.81       26.55       26.33       26.13       25.96       25.81       25.68       25.57       25.48       25.40    
        25.35       25.30       25.26       25.22       25.19       25.15       25.11       25.07       25.04       25.00    
   7    37.61       37.38       36.95       36.36       35.67       34.91       34.14       33.37       32.62       31.89    
        31.21       30.56       29.96       29.41       28.90       28.44       28.02       27.64       27.30       27.00    
        26.73       26.49       26.28       26.09       25.93       25.78       25.66       25.55       25.46       25.39    
        25.34       25.30       25.26       25.22       25.18       25.15       25.11       25.07       25.04       25.00    
   8    36.19       36.01       35.66       35.20       34.64       34.02       33.37       32.70       32.05       31.41    
        30.79       30.21       29.66       29.15       28.68       28.25       27.86       27.51       27.19       26.90    
        26.64       26.42       26.22       26.04       25.88       25.75       25.63       25.52       25.42       25.37    
        25.33       25.29       25.25       25.22       25.18       25.14       25.11       25.07       25.04       25.00    
   9    34.92       34.78       34.51       34.14       33.69       33.17       32.62       32.05       31.47       30.91    
        30.36       29.83       29.34       28.87       28.44       28.05       27.69       27.36       27.06       26.79    
        26.55       26.34       26.15       25.99       25.84       25.71       25.59       25.49       25.40       25.36    
        25.32       25.29       25.25       25.21       25.18       25.14       25.11       25.07       25.04       25.00    
  10    33.80       33.69       33.48       33.17       32.79       32.36       31.89       31.41       30.91       30.42    
        29.93       29.46       29.01       28.59       28.20       27.84       27.51       27.20       26.93       26.68    
        26.46       26.26       26.09       25.93       25.79       25.67       25.56       25.46       25.38       25.35    
        25.31       25.28       25.24       25.21       25.17       25.14       25.10       25.07       25.03       25.00    
  11    32.80       32.71       32.54       32.28       31.97       31.60       31.21       30.79       30.36       29.93    
        29.50       29.08       28.68       28.30       27.95       27.62       27.32       27.05       26.79       26.57    
        26.36       26.18       26.02       25.87       25.74       25.63       25.52       25.42       25.37       25.34    
        25.31       25.27       25.24       25.20       25.17       25.13       25.10       25.07       25.03       25.00    
  12    31.91       31.83       31.69       31.47       31.21       30.90       30.56       30.21       29.83       29.46    
        29.08       28.71       28.36       28.02       27.71       27.41       27.14       26.89       26.66       26.45    
        26.26       26.10       25.94       25.81       25.69       25.59       25.49       25.41       25.37       25.33    
        25.30       25.26       25.23       25.20       25.16       25.13       25.10       25.07       25.03       25.00    
  13    31.11       31.04       30.92       30.73       30.51       30.25       29.96       29.66       29.34       29.01    
        28.68       28.36       28.05       27.75       27.47       27.20       26.96       26.73       26.52       26.34    
        26.17       26.01       25.87       25.75       25.64       25.54       25.46       25.40       25.36       25.32    
        25.29       25.26       25.22       25.19       25.16       25.13       25.10       25.06       25.03       25.00    
  14    30.38       30.33       30.22       30.07       29.87       29.66       29.41       29.15       28.87       28.59    
        28.30       28.02       27.75       27.49       27.24       27.00       26.78       26.58       26.39       26.22    
        26.07       25.93       25.80       25.69       25.59       25.50       25.42       25.38       25.35       25.31    
        25.28       25.25       25.22       25.19       25.15       25.12       25.09       25.06       25.03       25.00    
  15    29.72       29.67       29.59       29.46       29.30       29.11       28.90       28.68       28.44       28.20    
        27.95       27.71       27.47       27.24       27.02       26.81       26.61       26.43       26.27       26.11    
        25.98       25.85       25.74       25.64       25.54       25.46       25.39       25.36       25.33       25.30    
        25.27       25.24       25.21       25.18       25.15       25.12       25.09       25.06       25.03       25.00    
  16    29.12       29.09       29.01       28.91       28.78       28.62       28.44       28.25       28.05       27.84    
        27.62       27.41       27.20       27.00       26.81       26.62       26.45       26.29       26.15       26.01    
        25.89       25.77       25.67       25.58       25.50       25.42       25.38       25.35       25.32       25.29    
        25.26       25.23       25.20       25.17       25.15       25.12       25.09       25.06       25.03       25.00    
  17    28.60       28.56       28.50       28.42       28.31       28.17       28.02       27.86       27.69       27.51    
        27.32       27.14       26.96       26.78       26.61       26.45       26.30       26.16       26.03       25.91    
        25.80       25.70       25.61       25.53       25.46       25.41       25.37       25.34       25.31       25.28    
        25.25       25.23       25.20       25.17       25.14       25.11       25.08       25.06       25.03       25.00    
  18    28.13       28.10       28.05       27.98       27.88       27.77       27.64       27.51       27.36       27.20    
        27.05       26.89       26.73       26.58       26.43       26.29       26.16       26.04       25.92       25.82    
        25.72       25.64       25.56       25.48       25.42       25.39       25.36       25.33       25.30       25.27    
        25.25       25.22       25.19       25.16       25.13       25.11       25.08       25.05       25.03       25.00    
  19    27.71       27.69       27.65       27.58       27.51       27.41       27.30       27.19       27.06       26.93    
        26.79       26.66       26.52       26.39       26.27       26.15       26.03       25.92       25.83       25.74    
        25.65       25.58       25.51       25.44       25.41       25.38       25.35       25.32       25.29       25.26    
        25.24       25.21       25.18       25.16       25.13       25.10       25.08       25.05       25.03       25.00    
  20    27.34       27.32       27.29       27.24       27.17       27.09       27.00       26.90       26.79       26.68    
        26.57       26.45       26.34       26.22       26.11       26.01       25.91       25.82       25.74       25.66    
        25.59       25.53       25.48       25.43       25.39       25.36       25.33       25.31       25.28       25.25    
        25.23       25.20       25.17       25.15       25.12       25.10       25.07       25.05       25.02       25.00    
  21    27.01       27.00       26.97       26.93       26.87       26.81       26.73       26.64       26.55       26.46    
        26.36       26.26       26.17       26.07       25.98       25.89       25.80       25.72       25.65       25.59    
        25.54       25.49       25.45       25.41       25.38       25.35       25.32       25.29       25.27       25.24    
        25.22       25.19       25.17       25.14       25.12       25.09       25.07       25.05       25.02       25.00    
  22    26.73       26.72       26.69       26.66       26.61       26.55       26.49       26.42       26.34       26.26    
        26.18       26.10       26.01       25.93       25.85       25.77       25.70       25.64       25.58       25.53    
        25.49       25.46       25.42       25.39       25.36       25.33       25.30       25.28       25.25       25.23    
        25.21       25.18       25.16       25.14       25.11       25.09       25.07       25.04       25.02       25.00    
  23    26.48       26.47       26.45       26.42       26.38       26.33       26.28       26.22       26.15       26.09    
        26.02       25.94       25.87       25.80       25.74       25.67       25.61       25.56       25.51       25.48    
        25.45       25.42       25.39       25.37       25.34       25.31       25.29       25.26       25.24       25.22    
        25.19       25.17       25.15       25.13       25.11       25.09       25.06       25.04       25.02       25.00    
  24    26.26       26.25       26.23       26.21       26.17       26.13       26.09       26.04       25.99       25.93    
        25.87       25.81       25.75       25.69       25.64       25.58       25.53       25.48       25.44       25.43    
        25.41       25.39       25.37       25.34       25.32       25.29       25.27       25.25       25.23       25.21    
        25.18       25.16       25.14       25.12       25.10       25.08       25.06       25.04       25.02       25.00    
  25    26.07       26.06       26.04       26.02       26.00       25.96       25.93       25.88       25.84       25.79    
        25.74       25.69       25.64       25.59       25.54       25.50       25.46       25.42       25.41       25.39    
        25.38       25.36       25.34       25.32       25.30       25.28       25.25       25.23       25.21       25.19    
        25.17       25.15       25.13       25.11       25.09       25.08       25.06       25.04       25.02       25.00    
  26    25.90       25.89       25.88       25.86       25.84       25.81       25.78       25.75       25.71       25.67    
        25.63       25.59       25.54       25.50       25.46       25.42       25.41       25.39       25.38       25.36    
        25.35       25.33       25.31       25.29       25.28       25.26       25.24       25.22       25.20       25.18    
        25.16       25.14       25.12       25.11       25.09       25.07       25.05       25.04       25.02       25.00    
  27    25.75       25.74       25.74       25.72       25.70       25.68       25.66       25.63       25.59       25.56    
        25.52       25.49       25.46       25.42       25.39       25.38       25.37       25.36       25.35       25.33    
        25.32       25.30       25.29       25.27       25.25       25.24       25.22       25.20       25.18       25.17    
        25.15       25.13       25.12       25.10       25.08       25.07       25.05       25.03       25.02       25.00    
  28    25.62       25.61       25.61       25.60       25.59       25.57       25.55       25.52       25.49       25.46    
        25.42       25.41       25.40       25.38       25.36       25.35       25.34       25.33       25.32       25.31    
        25.29       25.28       25.26       25.25       25.23       25.22       25.20       25.19       25.17       25.15    
        25.14       25.12       25.11       25.09       25.08       25.06       25.05       25.03       25.02       25.00    
  29    25.50       25.50       25.49       25.49       25.48       25.48       25.46       25.42       25.40       25.38    
        25.37       25.37       25.36       25.35       25.33       25.32       25.31       25.30       25.29       25.28    
        25.27       25.25       25.24       25.23       25.21       25.20       25.18       25.17       25.16       25.14    
        25.13       25.11       25.10       25.08       25.07       25.06       25.04       25.03       25.01       25.00    
  30    25.39       25.39       25.39       25.39       25.39       25.40       25.39       25.37       25.36       25.35    
        25.34       25.33       25.32       25.31       25.30       25.29       25.28       25.27       25.26       25.25    
        25.24       25.23       25.22       25.21       25.19       25.18       25.17       25.15       25.14       25.13    
        25.12       25.10       25.09       25.08       25.06       25.05       25.04       25.03       25.01       25.00    
  31    25.34       25.34       25.34       25.34       25.34       25.35       25.34       25.33       25.32       25.31    
        25.31       25.30       25.29       25.28       25.27       25.26       25.25       25.25       25.24       25.23    
        25.22       25.21       25.19       25.18       25.17       25.16       25.15       25.14       25.13       25.12    
        25.10       25.09       25.08       25.07       25.06       25.05       25.03       25.02       25.01       25.00    
  32    25.30       25.30       25.30       25.30       25.30       25.30       25.30       25.29       25.29       25.28    
        25.27       25.26       25.26       25.25       25.24       25.23       25.23       25.22       25.21       25.20    
        25.19       25.18       25.17       25.16       25.15       25.14       25.13       25.12       25.11       25.10    
        25.09       25.08       25.07       25.06       25.05       25.04       25.03       25.02       25.01       25.00    
  33    25.27       25.27       25.27       25.26       25.26       25.26       25.26       25.25       25.25       25.24    
        25.24       25.23       25.22       25.22       25.21       25.20       25.20       25.19       25.18       25.17    
        25.17       25.16       25.15       25.14       25.13       25.12       25.12       25.11       25.10       25.09    
        25.08       25.07       25.06       25.05       25.04       25.04       25.03       25.02       25.01       25.00    
  34    25.23       25.23       25.23       25.23       25.23       25.22       25.22       25.22       25.21       25.21    
        25.20       25.20       25.19       25.19       25.18       25.17       25.17       25.16       25.16       25.15    
        25.14       25.14       25.13       25.12       25.11       25.11       25.10       25.09       25.08       25.08    
        25.07       25.06       25.05       25.05       25.04       25.03       25.02       25.02       25.01       25.00    
  35    25.19       25.19       25.19       25.19       25.19       25.19       25.18       25.18       25.18       25.17    
        25.17       25.16       25.16       25.15       25.15       25.15       25.14       25.13       25.13       25.12    
        25.12       25.11       25.11       25.10       25.09       25.09       25.08       25.08       25.07       25.06    
        25.06       25.05       25.04       25.04       25.03       25.03       25.02       25.01       25.01       25.00    
  36    25.15       25.15       25.15       25.15       25.15       25.15       25.15       25.14       25.14       25.14    
        25.13       25.13       25.13       25.12       25.12       25.12       25.11       25.11       25.10       25.10    
        25.09       25.09       25.09       25.08       25.08       25.07       25.07       25.06       25.06       25.05    
        25.05       25.04       25.04       25.03       25.03       25.02       25.02       25.01       25.01       25.00    
  37    25.11       25.11       25.11       25.11       25.11       25.11       25.11       25.11       25.11       25.10    
        25.10       25.10       25.10       25.09       25.09       25.09       25.08       25.08       25.08       25.07    
        25.07       25.07       25.06       25.06       25.06       25.05       25.05       25.05       25.04       25.04    
        25.03       25.03       25.03       25.02       25.02       25.02       25.01       25.01       25.00       25.00    
  38    25.08       25.08       25.08       25.07       25.07       25.07       25.07       25.07       25.07       25.07    
        25.07       25.07       25.06       25.06       25.06       25.06       25.06       25.05       25.05       25.05    
        25.05       25.04       25.04       25.04       25.04       25.04       25.03       25.03       25.03       25.03    
        25.02       25.02       25.02       25.02       25.01       25.01       25.01       25.01       25.00       25.00    
  39    25.04       25.04       25.04       25.04       25.04       25.04       25.04       25.04       25.04       25.03    
        25.03       25.03       25.03       25.03       25.03       25.03       25.03       25.03       25.03       25.02    
        25.02       25.02       25.02       25.02       25.02       25.02       25.02       25.02       25.01       25.01    
        25.01       25.01       25.01       25.01       25.01       25.01       25.00       25.00       25.00       25.00    
  40    25.00       25.00       25.00       25.00       25.00       25.00       25.00       25.00       25.00       25.00    
        25.00       25.00       25.00       25.00       25.00       25.00       25.00       25.00       25.00       25.00    
        25.00       25.00       25.00       25.00       25.00       25.00       25.00       25.00       25.00       25.00    
        25.00       25.00       25.00       25.00       25.00       25.00       25.00       25.00       25.00       25.00    
1
  VOLUMETRIC BUDGET FOR ENTIRE MODEL AT END OF TIME STEP 17 IN STRESS PERIOD   3
  ------------------------------------------------------------------------------

     CUMULATIVE VOLUMES      L**3       RATES FOR THIS TIME STEP      L**3/T
     ------------------                 ------------------------

           IN:                                      IN:
           ---                                      ---
             STORAGE =       29521.0059               STORAGE =           3.0613
       CONSTANT HEAD =           0.1397         CONSTANT HEAD =           0.0000
            RECHARGE =     8218751.5000              RECHARGE =        3125.0000

            TOTAL IN =     8248272.5000              TOTAL IN =        3128.0613

          OUT:                                     OUT:
          ----                                     ----
             STORAGE =     7955385.5000               STORAGE =        2903.6985
       CONSTANT HEAD =      292896.8125         CONSTANT HEAD =         224.3712
            RECHARGE =           0.0000              RECHARGE =           0.0000

           TOTAL OUT =     8248282.5000             TOTAL OUT =        3128.0696

            IN - OUT =         -10.0000              IN - OUT =      -8.3008E-03

 PERCENT DISCREPANCY =           0.00     PERCENT DISCREPANCY =           0.00






          TIME SUMMARY AT END OF TIME STEP  17 IN STRESS PERIOD    3
                    SECONDS     MINUTES      HOURS       DAYS        YEARS
                    -----------------------------------------------------------
   TIME STEP LENGTH 9.76828E+06 1.62805E+05  2713.4      113.06     0.30954    
 STRESS PERIOD TIME 1.66061E+08 2.76768E+06  46128.      1922.0      5.2621    
         TOTAL TIME 2.27232E+08 3.78720E+06  63120.      2630.0      7.2005    
1

 Run end date and time (yyyy/mm/dd hh:mm:ss): 2011/10/03  9:19:05
 Elapsed run time:  1.240 Seconds

