                                  MODFLOW-NWT-SWR1 
      U.S. GEOLOGICAL SURVEY MODULAR FINITE-DIFFERENCE GROUNDWATER-FLOW MODEL
                            VERSION 1.2.0 03/01/2020
                    BASED ON MODFLOW-2005 VERSION 1.12.00 02/03/2017

 LIST FILE: .\Sfr2weltab\Sfr2weltab.lst
                         UNIT   12

 OPENING .\Sfr2weltab\Sfr2weltab.dis
 FILE TYPE:DIS   UNIT   13   STATUS:OLD    
 FORMAT:FORMATTED              ACCESS:SEQUENTIAL          

 OPENING .\Sfr2weltab\Sfr2weltab.ghb
 FILE TYPE:GHB   UNIT   15   STATUS:OLD    
 FORMAT:FORMATTED              ACCESS:SEQUENTIAL          

 OPENING .\Sfr2weltab\Sfr2weltab.bs6
 FILE TYPE:BAS6   UNIT   41   STATUS:OLD    
 FORMAT:FORMATTED              ACCESS:SEQUENTIAL          

 OPENING .\Sfr2weltab\Sfr2weltab.upw
 FILE TYPE:UPW   UNIT   42   STATUS:OLD    
 FORMAT:FORMATTED              ACCESS:SEQUENTIAL          

 OPENING .\Sfr2weltab\Sfr2weltab.nwt
 FILE TYPE:NWT   UNIT   43   STATUS:OLD    
 FORMAT:FORMATTED              ACCESS:SEQUENTIAL          

 OPENING .\Sfr2weltab\Sfr2weltab.oc
 FILE TYPE:OC   UNIT   44   STATUS:OLD    
 FORMAT:FORMATTED              ACCESS:SEQUENTIAL          

 OPENING .\Sfr2weltab\Sfr2weltab.sfr
 FILE TYPE:SFR   UNIT   45   STATUS:OLD    
 FORMAT:FORMATTED              ACCESS:SEQUENTIAL          

 OPENING .\Sfr2weltab\Sfr2weltab.wel
 FILE TYPE:WEL   UNIT   91   STATUS:OLD    
 FORMAT:FORMATTED              ACCESS:SEQUENTIAL          

 OPENING .\Sfr2weltab\Sfr2weltab.out
 FILE TYPE:DATA   UNIT   51   STATUS:UNKNOWN
 FORMAT:FORMATTED              ACCESS:SEQUENTIAL          

 OPENING .\Sfr2weltab\weltab1.txt
 FILE TYPE:DATA   UNIT   92   STATUS:UNKNOWN
 FORMAT:FORMATTED              ACCESS:SEQUENTIAL          

 OPENING .\Sfr2weltab\weltab2.txt
 FILE TYPE:DATA   UNIT   93   STATUS:UNKNOWN
 FORMAT:FORMATTED              ACCESS:SEQUENTIAL          

 OPENING .\Sfr2weltab\Sfr2weltab.gag
 FILE TYPE:GAGE   UNIT   46   STATUS:OLD    
 FORMAT:FORMATTED              ACCESS:SEQUENTIAL          

 OPENING .\Sfr2weltab\Sfr2weltab.gg1
 FILE TYPE:DATA   UNIT   83   STATUS:UNKNOWN
 FORMAT:FORMATTED              ACCESS:SEQUENTIAL          

 OPENING .\Sfr2weltab\Sfr2weltab.gg2
 FILE TYPE:DATA   UNIT   84   STATUS:UNKNOWN
 FORMAT:FORMATTED              ACCESS:SEQUENTIAL          

 OPENING .\Sfr2weltab\Sfr2weltab.gg3
 FILE TYPE:DATA   UNIT   85   STATUS:UNKNOWN
 FORMAT:FORMATTED              ACCESS:SEQUENTIAL          

 OPENING .\Sfr2weltab\Sfr2weltab.gg4
 FILE TYPE:DATA   UNIT   86   STATUS:UNKNOWN
 FORMAT:FORMATTED              ACCESS:SEQUENTIAL          

 OPENING .\Sfr2weltab\Sfr2weltab.gg5
 FILE TYPE:DATA   UNIT   87   STATUS:UNKNOWN
 FORMAT:FORMATTED              ACCESS:SEQUENTIAL          

 OPENING .\Sfr2weltab\Sfr2weltab.gg6
 FILE TYPE:DATA   UNIT   88   STATUS:UNKNOWN
 FORMAT:FORMATTED              ACCESS:SEQUENTIAL          

 OPENING .\Sfr2weltab\Sfr2weltab.gg7
 FILE TYPE:DATA   UNIT   89   STATUS:UNKNOWN
 FORMAT:FORMATTED              ACCESS:SEQUENTIAL          

 OPENING .\Sfr2weltab\Sfr2weltab.gg8
 FILE TYPE:DATA   UNIT   90   STATUS:UNKNOWN
 FORMAT:FORMATTED              ACCESS:SEQUENTIAL          

 BAS -- BASIC PACKAGE, VERSION 1.2.0, 3/01/2020 INPUT READ FROM UNIT   41
 
 MODFLOW was compiled using mixed precision
 Precision of REAL variables:           6
 Precision of DOUBLE PRECISION variables:          15

 DISCRETIZATION INPUT DATA READ FROM UNIT   13
 # Discretization file input for hypothetical test simulation
 # Units: seconds, meters
    1 LAYERS         7 ROWS       100 COLUMNS
   50 STRESS PERIOD(S) IN SIMULATION
 MODEL TIME UNIT IS SECONDS
 MODEL LENGTH UNIT IS METERS
  Confining bed flag for each layer:
   0

                     DELR =   200.000    



                               DELC
 READING ON UNIT   13 WITH FORMAT: (FREE)              
   90.000       90.000       90.000       60.000       90.000    
   90.000       90.000    



           TOP ELEVATION OF LAYER 1
 READING ON UNIT   13 WITH FORMAT: (FREE)              

           1          2          3          4          5          6          7          8          9         10         11
          12         13         14         15         16         17         18         19         20         21         22
          23         24         25         26         27         28         29         30         31         32         33
          34         35         36         37         38         39         40         41         42         43         44
          45         46         47         48         49         50         51         52         53         54         55
          56         57         58         59         60         61         62         63         64         65         66
          67         68         69         70         71         72         73         74         75         76         77
          78         79         80         81         82         83         84         85         86         87         88
          89         90         91         92         93         94         95         96         97         98         99
         100
 .........................................................................................................................
   1    125.       124.       124.       124.       124.       123.       123.       123.       123.       122.       122.    
        122.       122.       121.       121.       121.       121.       120.       120.       120.       120.       119.    
        119.       119.       119.       118.       118.       118.       118.       117.       117.       117.       117.    
        116.       116.       116.       116.       115.       115.       115.       115.       114.       114.       114.    
        114.       113.       113.       113.       113.       112.       112.       112.       112.       111.       111.    
        111.       111.       110.       110.       110.       110.       109.       109.       109.       109.       108.    
        108.       108.       108.       107.       107.       107.       107.       106.       106.       106.       106.    
        105.       105.       105.       105.       104.       104.       104.       104.       103.       103.       103.    
        103.       102.       102.       102.       102.       101.       101.       101.       101.       100.       100.    
        100.    
   2    125.       124.       124.       124.       124.       123.       123.       123.       123.       122.       122.    
        122.       122.       121.       121.       121.       121.       120.       120.       120.       120.       119.    
        119.       119.       119.       118.       118.       118.       118.       117.       117.       117.       117.    
        116.       116.       116.       116.       115.       115.       115.       115.       114.       114.       114.    
        114.       113.       113.       113.       113.       112.       112.       112.       112.       111.       111.    
        111.       111.       110.       110.       110.       110.       109.       109.       109.       109.       108.    
        108.       108.       108.       107.       107.       107.       107.       106.       106.       106.       106.    
        105.       105.       105.       105.       104.       104.       104.       104.       103.       103.       103.    
        103.       102.       102.       102.       102.       101.       101.       101.       101.       100.       100.    
        100.    
   3    125.       124.       124.       124.       124.       123.       123.       123.       123.       122.       122.    
        122.       122.       121.       121.       121.       121.       120.       120.       120.       120.       119.    
        119.       119.       119.       118.       118.       118.       118.       117.       117.       117.       117.    
        116.       116.       116.       116.       115.       115.       115.       115.       114.       114.       114.    
        114.       113.       113.       113.       113.       112.       112.       112.       112.       111.       111.    
        111.       111.       110.       110.       110.       110.       109.       109.       109.       109.       108.    
        108.       108.       108.       107.       107.       107.       107.       106.       106.       106.       106.    
        105.       105.       105.       105.       104.       104.       104.       104.       103.       103.       103.    
        103.       102.       102.       102.       102.       101.       101.       101.       101.       100.       100.    
        100.    
   4    125.       124.       124.       124.       124.       123.       123.       123.       123.       122.       122.    
        122.       122.       121.       121.       121.       121.       120.       120.       120.       120.       119.    
        119.       119.       119.       118.       118.       118.       118.       117.       117.       117.       117.    
        116.       116.       116.       116.       115.       115.       115.       115.       114.       114.       114.    
        114.       113.       113.       113.       113.       112.       112.       112.       112.       111.       111.    
        111.       111.       110.       110.       110.       110.       109.       109.       109.       109.       108.    
        108.       108.       108.       107.       107.       107.       107.       106.       106.       106.       106.    
        105.       105.       105.       105.       104.       104.       104.       104.       103.       103.       103.    
        103.       102.       102.       102.       102.       101.       101.       101.       101.       100.       100.    
        100.    
   5    125.       124.       124.       124.       124.       123.       123.       123.       123.       122.       122.    
        122.       122.       121.       121.       121.       121.       120.       120.       120.       120.       119.    
        119.       119.       119.       118.       118.       118.       118.       117.       117.       117.       117.    
        116.       116.       116.       116.       115.       115.       115.       115.       114.       114.       114.    
        114.       113.       113.       113.       113.       112.       112.       112.       112.       111.       111.    
        111.       111.       110.       110.       110.       110.       109.       109.       109.       109.       108.    
        108.       108.       108.       107.       107.       107.       107.       106.       106.       106.       106.    
        105.       105.       105.       105.       104.       104.       104.       104.       103.       103.       103.    
        103.       102.       102.       102.       102.       101.       101.       101.       101.       100.       100.    
        100.    
   6    125.       124.       124.       124.       124.       123.       123.       123.       123.       122.       122.    
        122.       122.       121.       121.       121.       121.       120.       120.       120.       120.       119.    
        119.       119.       119.       118.       118.       118.       118.       117.       117.       117.       117.    
        116.       116.       116.       116.       115.       115.       115.       115.       114.       114.       114.    
        114.       113.       113.       113.       113.       112.       112.       112.       112.       111.       111.    
        111.       111.       110.       110.       110.       110.       109.       109.       109.       109.       108.    
        108.       108.       108.       107.       107.       107.       107.       106.       106.       106.       106.    
        105.       105.       105.       105.       104.       104.       104.       104.       103.       103.       103.    
        103.       102.       102.       102.       102.       101.       101.       101.       101.       100.       100.    
        100.    
   7    125.       124.       124.       124.       124.       123.       123.       123.       123.       122.       122.    
        122.       122.       121.       121.       121.       121.       120.       120.       120.       120.       119.    
        119.       119.       119.       118.       118.       118.       118.       117.       117.       117.       117.    
        116.       116.       116.       116.       115.       115.       115.       115.       114.       114.       114.    
        114.       113.       113.       113.       113.       112.       112.       112.       112.       111.       111.    
        111.       111.       110.       110.       110.       110.       109.       109.       109.       109.       108.    
        108.       108.       108.       107.       107.       107.       107.       106.       106.       106.       106.    
        105.       105.       105.       105.       104.       104.       104.       104.       103.       103.       103.    
        103.       102.       102.       102.       102.       101.       101.       101.       101.       100.       100.    
        100.    

   MODEL LAYER BOTTOM EL. =   0.00000     FOR LAYER   1


 STRESS PERIOD     LENGTH       TIME STEPS     MULTIPLIER FOR DELT    SS FLAG
 ----------------------------------------------------------------------------
        1         2592000.         30                    1.100         TR
        2         2592000.         30                    1.100         TR
        3         2592000.         30                    1.100         TR
        4         2592000.         30                    1.100         TR
        5         2592000.         30                    1.100         TR
        6         2592000.         30                    1.100         TR
        7         2592000.         30                    1.100         TR
        8         2592000.         30                    1.100         TR
        9         2592000.         30                    1.100         TR
       10         2592000.         30                    1.100         TR
       11         2592000.         30                    1.100         TR
       12         2592000.         30                    1.100         TR
       13         2592000.         30                    1.100         TR
       14         2592000.         30                    1.100         TR
       15         2592000.         30                    1.100         TR
       16         2592000.         30                    1.100         TR
       17         2592000.         30                    1.100         TR
       18         2592000.         30                    1.100         TR
       19         2592000.         30                    1.100         TR
       20         2592000.         30                    1.100         TR
       21         2592000.         30                    1.100         TR
       22         2592000.         30                    1.100         TR
       23         2592000.         30                    1.100         TR
       24         2592000.         30                    1.100         TR
       25         2592000.         30                    1.100         TR
       26         2592000.         30                    1.100         TR
       27         2592000.         30                    1.100         TR
       28         2592000.         30                    1.100         TR
       29         2592000.         30                    1.100         TR
       30         2592000.         30                    1.100         TR
       31         2592000.         30                    1.100         TR
       32         2592000.         30                    1.100         TR
       33         2592000.         30                    1.100         TR
       34         2592000.         30                    1.100         TR
       35         2592000.         30                    1.100         TR
       36         2592000.         30                    1.100         TR
       37         2592000.         30                    1.100         TR
       38         2592000.         30                    1.100         TR
       39         2592000.         30                    1.100         TR
       40         2592000.         30                    1.100         TR
       41         2592000.         30                    1.100         TR
       42         2592000.         30                    1.100         TR
       43         2592000.         30                    1.100         TR
       44         2592000.         30                    1.100         TR
       45         2592000.         30                    1.100         TR
       46         2592000.         30                    1.100         TR
       47         2592000.         30                    1.100         TR
       48         2592000.         30                    1.100         TR
       49         2592000.         30                    1.100         TR
       50         2592000.         30                    1.100         TR

 TRANSIENT SIMULATION



 
 # BAS6 Package input file for hypothetical test simulation                      
 # Test of SFR2 Package                                                          
 THE FREE FORMAT OPTION HAS BEEN SELECTED



                     BOUNDARY ARRAY FOR LAYER   1
 READING ON UNIT   41 WITH FORMAT: (30I2)              

      1 2 3 4 5 6 7 8 9101112131415161718192021222324252627282930313233343536373839404142434445464748495051525354555657585960
     61626364656667686970717273747576777879808182838485868788899091929394959697989100
 ............................................................................................................................
   1  1 1 1 1 1 1 1 1 1 1 1 1 1 1 1 1 1 1 1 1 1 1 1 1 1 1 1 1 1 1 1 1 1 1 1 1 1 1 1 1 1 1 1 1 1 1 1 1 1 1 1 1 1 1 1 1 1 1 1 1
      1 1 1 1 1 1 1 1 1 1 1 1 1 1 1 1 1 1 1 1 1 1 1 1 1 1 1 1 1 1 1 1 1 1 1 1 1 1 1 1
   2  1 1 1 1 1 1 1 1 1 1 1 1 1 1 1 1 1 1 1 1 1 1 1 1 1 1 1 1 1 1 1 1 1 1 1 1 1 1 1 1 1 1 1 1 1 1 1 1 1 1 1 1 1 1 1 1 1 1 1 1
      1 1 1 1 1 1 1 1 1 1 1 1 1 1 1 1 1 1 1 1 1 1 1 1 1 1 1 1 1 1 1 1 1 1 1 1 1 1 1 1
   3  1 1 1 1 1 1 1 1 1 1 1 1 1 1 1 1 1 1 1 1 1 1 1 1 1 1 1 1 1 1 1 1 1 1 1 1 1 1 1 1 1 1 1 1 1 1 1 1 1 1 1 1 1 1 1 1 1 1 1 1
      1 1 1 1 1 1 1 1 1 1 1 1 1 1 1 1 1 1 1 1 1 1 1 1 1 1 1 1 1 1 1 1 1 1 1 1 1 1 1 1
   4  1 1 1 1 1 1 1 1 1 1 1 1 1 1 1 1 1 1 1 1 1 1 1 1 1 1 1 1 1 1 1 1 1 1 1 1 1 1 1 1 1 1 1 1 1 1 1 1 1 1 1 1 1 1 1 1 1 1 1 1
      1 1 1 1 1 1 1 1 1 1 1 1 1 1 1 1 1 1 1 1 1 1 1 1 1 1 1 1 1 1 1 1 1 1 1 1 1 1 1 1
   5  1 1 1 1 1 1 1 1 1 1 1 1 1 1 1 1 1 1 1 1 1 1 1 1 1 1 1 1 1 1 1 1 1 1 1 1 1 1 1 1 1 1 1 1 1 1 1 1 1 1 1 1 1 1 1 1 1 1 1 1
      1 1 1 1 1 1 1 1 1 1 1 1 1 1 1 1 1 1 1 1 1 1 1 1 1 1 1 1 1 1 1 1 1 1 1 1 1 1 1 1
   6  1 1 1 1 1 1 1 1 1 1 1 1 1 1 1 1 1 1 1 1 1 1 1 1 1 1 1 1 1 1 1 1 1 1 1 1 1 1 1 1 1 1 1 1 1 1 1 1 1 1 1 1 1 1 1 1 1 1 1 1
      1 1 1 1 1 1 1 1 1 1 1 1 1 1 1 1 1 1 1 1 1 1 1 1 1 1 1 1 1 1 1 1 1 1 1 1 1 1 1 1
   7  1 1 1 1 1 1 1 1 1 1 1 1 1 1 1 1 1 1 1 1 1 1 1 1 1 1 1 1 1 1 1 1 1 1 1 1 1 1 1 1 1 1 1 1 1 1 1 1 1 1 1 1 1 1 1 1 1 1 1 1
      1 1 1 1 1 1 1 1 1 1 1 1 1 1 1 1 1 1 1 1 1 1 1 1 1 1 1 1 1 1 1 1 1 1 1 1 1 1 1 1

 AQUIFER HEAD WILL BE SET TO  -6999.0     AT ALL NO-FLOW NODES (IBOUND=0).

             INITIAL HEAD =   104.000     FOR LAYER   1
 # OC input file for hypothetical test simulation
 # Test of SFR2 Package

 OUTPUT CONTROL IS SPECIFIED ONLY AT TIME STEPS FOR WHICH OUTPUT IS DESIRED
 HEADS WILL BE SAVED WITH FORMAT: (10F10.3)           
 SAVED HEADS WILL BE LABELED
 COMPACT CELL-BY-CELL BUDGET FILES WILL BE WRITTEN
 HEAD PRINT FORMAT CODE IS  14    DRAWDOWN PRINT FORMAT CODE IS   0
 HEADS WILL BE SAVED ON UNIT   51    DRAWDOWNS WILL BE SAVED ON UNIT    0
 # NWT Input File
 # Test Problem 3 for MODFLOW-NWT
 #HEADTOL  FLUXTOL MAXITEROUT THICKFACT LINMETH IPRNWT IBOTAV OPTIONS DBDREDUCE DBDINCREASE DBDGAMMA MOMFACT BACKFLAG MAXBACKITER BACKTOL BACKREDUCE

 NWT1 -- Newton Solver, VERSION 1.2.0, 3/01/2020
         INPUT READ FROM UNIT 43

 SPECIFIED OPTION:
 SOLVER INPUT VALUES ARE SPECIFIED BY USER
 ***XMD linear solver will be used***
 
   CONVERGENCE CRITERION OF   0.100000E-05 FOR HEAD SOLUTION
   AND A TOLERANCE OF   0.100000E-02 FOR FLOW SOLUTION AND 
   A MAXIMUM OF   200 OUTER ITERATIONS. 


   D-B-D REDUCTION FACTOR OF    0.990000E+00 AND 
   A D-B-D INCREASE FACTOR OF    0.100000E-04 AND 
   A D-B-D RELAXATION OF    0.000000E+00 AND 
   A MOMENTUM FACTOR OF    0.100000E+00 .


 ***BACKTRACKING IS INACTIVE***
 XMD -- LINEAR SOLUTION BY XMD PACKAGE VERSION 1.30
     BY MOTOMU IBARAKI, OHIO STATE UNIVERSITY, COLOMBUS, OH
                 INPUT READ FROM UNIT 43
 ACCELERATION METHOD                    (IACL) =         2
 NODE ORDERING FLAG                   (NORDER) =         0
 LEVEL OF FILL                         (LEVEL) =         1
 MAXIMUM NUMBER OF ORTHOGONALIZATIONS  (NORTH) =        15
 INDEX FOR USING REDUCED SYSTEM      (IREDSYS) =         1
 RESID. REDUCTION CONVERGE CRITERION  (RRCTOL) =  0.000000E+00
 INDEX FOR USING DROP TOLERANCE     (IDROPTOL) =         1
 DROP TOLERANCE VALUE                  (EPSRN) =  0.500000E-02
 CONVERGENCE CRITERIA OF           (HCLOSEXMD) =  0.100000E-03
 MAX. NUMBER OF LINEAR ITERATIONS  (MXITERXMD) =        50


 UPW1 -- UPSTREAM WEIGHTING FLOW PACKAGE, VERSION 1.2.0, 3/01/2020
         INPUT READ FROM UNIT 42

 # LPF Package input file for hypothetical test simulation
 # Test of SFR2 Package
 No named parameters

   LAYER FLAGS:
 LAYER       LAYTYP          LAYAVG    CHANI           LAYVKA           LAYWET
 ---------------------------------------------------------------------------
    1             1             0     1.000E+00             0             0

   INTERPRETATION OF LAYER FLAGS:
                        INTERBLOCK     HORIZONTAL    DATA IN
         LAYER TYPE   TRANSMISSIVITY   ANISOTROPY   ARRAY VKA   WETTABILITY
 LAYER   (LAYTYP)        (LAYAVG)      (CHANI)     (LAYVKA)       (LAYWET)
 ---------------------------------------------------------------------------
    1   CONVERTIBLE      HARMONIC     1.000E+00    VERTICAL K  NON-WETTABLE

    HYD. COND. ALONG ROWS =  8.000000E-04 FOR LAYER   1

      VERTICAL HYD. COND. =  6.000000E-06 FOR LAYER   1

         SPECIFIC STORAGE =   0.00000     FOR LAYER   1

           SPECIFIC YIELD =  0.200000     FOR LAYER   1

 WEL -- WELL PACKAGE FOR NWT VERSION 1.2.0,  3/01/2020 INPUT READ FROM UNIT   91
 # header lines
 # header lines
 No named parameters

 PROCESSING WELL OPTIONS
  Pumping rates will be read from time series input files.          2 files will be read
  Pumping rates will be read from time series input files. A maximum of         51 row entries will be read per file

 END PROCESSING WELL OPTIONS
 MAXIMUM OF      2 ACTIVE WELLS AT ONE TIME
 CELL-BY-CELL FLOWS WILL BE PRINTED WHEN ICBCFL NOT 0
 No named parameters


     0 Well parameters

 GHB -- GENERAL-HEAD BOUNDARY PACKAGE, VERSION 7, 5/2/2005
         INPUT READ FROM UNIT   15
 # GHB Package input file for hypothetical test simulation
 # Test of SFR2 Package
 No named parameters
 MAXIMUM OF      7 ACTIVE GHB CELLS AT ONE TIME
 CELL-BY-CELL FLOWS WILL BE PRINTED WHEN ICBCFL NOT 0


     0 GHB parameters

 SFR7 -- STREAMFLOW ROUTING PACKAGE, VERSION 1.0.5, 2012-04-05
         INPUT READ FROM UNIT  45
 # SFR2 Package input file for hypothetical test simulation
 # Test of SFR2 Package; revised May 20, 2006
 No named parameters

 PROCESSING SFR2 OPTIONS
 
  Some stream information will be read by reach. This option replaces NSTRM<0

 END PROCESSING SFR2 OPTIONS
 


 NUMBER OF STREAM REACHES IS  100

 NUMBER OF STREAM SEGMENTS IS    1

 NUMBER OF STREAM PARAMETERS IS    0

 NUMBER OF STREAM SEGMENTS DEFINED USING PARAMETERS IS              0

 MAXIMUM ERROR FOR STREAM LEAKAGE RATES IS  1.00E-05

 CONSTANT FOR MANNINGS EQUATION IS  1.0000E+00





 OPTION FOR UNSATURATED FLOW BENEATH STREAMBEDS IS ACTIVE 




   STREAM NETWORK DESCRIPTION: 

   LAYER    ROW    COL   SEGMENT   REACH     LENGTH
                          NUMBER   NUMBER    IN CELL        
   --------------------------------------------------
      1      4      1       1        1    2.0000E+02
      1      4      2       1        2    2.0000E+02
      1      4      3       1        3    2.0000E+02
      1      4      4       1        4    2.0000E+02
      1      4      5       1        5    2.0000E+02
      1      4      6       1        6    2.0000E+02
      1      4      7       1        7    2.0000E+02
      1      4      8       1        8    2.0000E+02
      1      4      9       1        9    2.0000E+02
      1      4     10       1       10    2.0000E+02
      1      4     11       1       11    2.0000E+02
      1      4     12       1       12    2.0000E+02
      1      4     13       1       13    2.0000E+02
      1      4     14       1       14    2.0000E+02
      1      4     15       1       15    2.0000E+02
      1      4     16       1       16    2.0000E+02
      1      4     17       1       17    2.0000E+02
      1      4     18       1       18    2.0000E+02
      1      4     19       1       19    2.0000E+02
      1      4     20       1       20    2.0000E+02
      1      4     21       1       21    2.0000E+02
      1      4     22       1       22    2.0000E+02
      1      4     23       1       23    2.0000E+02
      1      4     24       1       24    2.0000E+02
      1      4     25       1       25    2.0000E+02
      1      4     26       1       26    2.0000E+02
      1      4     27       1       27    2.0000E+02
      1      4     28       1       28    2.0000E+02
      1      4     29       1       29    2.0000E+02
      1      4     30       1       30    2.0000E+02
      1      4     31       1       31    2.0000E+02
      1      4     32       1       32    2.0000E+02
      1      4     33       1       33    2.0000E+02
      1      4     34       1       34    2.0000E+02
      1      4     35       1       35    2.0000E+02
      1      4     36       1       36    2.0000E+02
      1      4     37       1       37    2.0000E+02
      1      4     38       1       38    2.0000E+02
      1      4     39       1       39    2.0000E+02
      1      4     40       1       40    2.0000E+02
      1      4     41       1       41    2.0000E+02
      1      4     42       1       42    2.0000E+02
      1      4     43       1       43    2.0000E+02
      1      4     44       1       44    2.0000E+02
      1      4     45       1       45    2.0000E+02
      1      4     46       1       46    2.0000E+02
      1      4     47       1       47    2.0000E+02
      1      4     48       1       48    2.0000E+02
      1      4     49       1       49    2.0000E+02
      1      4     50       1       50    2.0000E+02
      1      4     51       1       51    2.0000E+02
      1      4     52       1       52    2.0000E+02
      1      4     53       1       53    2.0000E+02
      1      4     54       1       54    2.0000E+02
      1      4     55       1       55    2.0000E+02
      1      4     56       1       56    2.0000E+02
      1      4     57       1       57    2.0000E+02
      1      4     58       1       58    2.0000E+02
      1      4     59       1       59    2.0000E+02
      1      4     60       1       60    2.0000E+02
      1      4     61       1       61    2.0000E+02
      1      4     62       1       62    2.0000E+02
      1      4     63       1       63    2.0000E+02
      1      4     64       1       64    2.0000E+02
      1      4     65       1       65    2.0000E+02
      1      4     66       1       66    2.0000E+02
      1      4     67       1       67    2.0000E+02
      1      4     68       1       68    2.0000E+02
      1      4     69       1       69    2.0000E+02
      1      4     70       1       70    2.0000E+02
      1      4     71       1       71    2.0000E+02
      1      4     72       1       72    2.0000E+02
      1      4     73       1       73    2.0000E+02
      1      4     74       1       74    2.0000E+02
      1      4     75       1       75    2.0000E+02
      1      4     76       1       76    2.0000E+02
      1      4     77       1       77    2.0000E+02
      1      4     78       1       78    2.0000E+02
      1      4     79       1       79    2.0000E+02
      1      4     80       1       80    2.0000E+02
      1      4     81       1       81    2.0000E+02
      1      4     82       1       82    2.0000E+02
      1      4     83       1       83    2.0000E+02
      1      4     84       1       84    2.0000E+02
      1      4     85       1       85    2.0000E+02
      1      4     86       1       86    2.0000E+02
      1      4     87       1       87    2.0000E+02
      1      4     88       1       88    2.0000E+02
      1      4     89       1       89    2.0000E+02
      1      4     90       1       90    2.0000E+02
      1      4     91       1       91    2.0000E+02
      1      4     92       1       92    2.0000E+02
      1      4     93       1       93    2.0000E+02
      1      4     94       1       94    2.0000E+02
      1      4     95       1       95    2.0000E+02
      1      4     96       1       96    2.0000E+02
      1      4     97       1       97    2.0000E+02
      1      4     98       1       98    2.0000E+02
      1      4     99       1       99    2.0000E+02
      1      4    100       1      100    2.0000E+02
 INITIAL WATER CONTENT IS LESS THAN RESIDUAL WATER CONTENT FOR STREAM SEGMENT:     1 REACH:     1 INITIAL WATER CONTENT RESET TO RESIDUAL OF  0.10000E+00
 INITIAL WATER CONTENT IS LESS THAN RESIDUAL WATER CONTENT FOR STREAM SEGMENT:     1 REACH:     2 INITIAL WATER CONTENT RESET TO RESIDUAL OF  0.10000E+00
 INITIAL WATER CONTENT IS LESS THAN RESIDUAL WATER CONTENT FOR STREAM SEGMENT:     1 REACH:     3 INITIAL WATER CONTENT RESET TO RESIDUAL OF  0.10000E+00
 INITIAL WATER CONTENT IS LESS THAN RESIDUAL WATER CONTENT FOR STREAM SEGMENT:     1 REACH:     4 INITIAL WATER CONTENT RESET TO RESIDUAL OF  0.10000E+00
 INITIAL WATER CONTENT IS LESS THAN RESIDUAL WATER CONTENT FOR STREAM SEGMENT:     1 REACH:     5 INITIAL WATER CONTENT RESET TO RESIDUAL OF  0.10000E+00
 INITIAL WATER CONTENT IS LESS THAN RESIDUAL WATER CONTENT FOR STREAM SEGMENT:     1 REACH:     6 INITIAL WATER CONTENT RESET TO RESIDUAL OF  0.10000E+00
 INITIAL WATER CONTENT IS LESS THAN RESIDUAL WATER CONTENT FOR STREAM SEGMENT:     1 REACH:     7 INITIAL WATER CONTENT RESET TO RESIDUAL OF  0.10000E+00
 INITIAL WATER CONTENT IS LESS THAN RESIDUAL WATER CONTENT FOR STREAM SEGMENT:     1 REACH:     8 INITIAL WATER CONTENT RESET TO RESIDUAL OF  0.10000E+00
 INITIAL WATER CONTENT IS LESS THAN RESIDUAL WATER CONTENT FOR STREAM SEGMENT:     1 REACH:     9 INITIAL WATER CONTENT RESET TO RESIDUAL OF  0.10000E+00
 INITIAL WATER CONTENT IS LESS THAN RESIDUAL WATER CONTENT FOR STREAM SEGMENT:     1 REACH:    10 INITIAL WATER CONTENT RESET TO RESIDUAL OF  0.10000E+00
 INITIAL WATER CONTENT IS LESS THAN RESIDUAL WATER CONTENT FOR STREAM SEGMENT:     1 REACH:    11 INITIAL WATER CONTENT RESET TO RESIDUAL OF  0.10000E+00
 INITIAL WATER CONTENT IS LESS THAN RESIDUAL WATER CONTENT FOR STREAM SEGMENT:     1 REACH:    12 INITIAL WATER CONTENT RESET TO RESIDUAL OF  0.10000E+00
 INITIAL WATER CONTENT IS LESS THAN RESIDUAL WATER CONTENT FOR STREAM SEGMENT:     1 REACH:    13 INITIAL WATER CONTENT RESET TO RESIDUAL OF  0.10000E+00
 INITIAL WATER CONTENT IS LESS THAN RESIDUAL WATER CONTENT FOR STREAM SEGMENT:     1 REACH:    14 INITIAL WATER CONTENT RESET TO RESIDUAL OF  0.10000E+00
 INITIAL WATER CONTENT IS LESS THAN RESIDUAL WATER CONTENT FOR STREAM SEGMENT:     1 REACH:    15 INITIAL WATER CONTENT RESET TO RESIDUAL OF  0.10000E+00
 INITIAL WATER CONTENT IS LESS THAN RESIDUAL WATER CONTENT FOR STREAM SEGMENT:     1 REACH:    16 INITIAL WATER CONTENT RESET TO RESIDUAL OF  0.10000E+00
 INITIAL WATER CONTENT IS LESS THAN RESIDUAL WATER CONTENT FOR STREAM SEGMENT:     1 REACH:    17 INITIAL WATER CONTENT RESET TO RESIDUAL OF  0.10000E+00
 INITIAL WATER CONTENT IS LESS THAN RESIDUAL WATER CONTENT FOR STREAM SEGMENT:     1 REACH:    18 INITIAL WATER CONTENT RESET TO RESIDUAL OF  0.10000E+00
 INITIAL WATER CONTENT IS LESS THAN RESIDUAL WATER CONTENT FOR STREAM SEGMENT:     1 REACH:    19 INITIAL WATER CONTENT RESET TO RESIDUAL OF  0.10000E+00
 INITIAL WATER CONTENT IS LESS THAN RESIDUAL WATER CONTENT FOR STREAM SEGMENT:     1 REACH:    20 INITIAL WATER CONTENT RESET TO RESIDUAL OF  0.10000E+00
 INITIAL WATER CONTENT IS LESS THAN RESIDUAL WATER CONTENT FOR STREAM SEGMENT:     1 REACH:    21 INITIAL WATER CONTENT RESET TO RESIDUAL OF  0.10000E+00
 INITIAL WATER CONTENT IS LESS THAN RESIDUAL WATER CONTENT FOR STREAM SEGMENT:     1 REACH:    22 INITIAL WATER CONTENT RESET TO RESIDUAL OF  0.10000E+00
 INITIAL WATER CONTENT IS LESS THAN RESIDUAL WATER CONTENT FOR STREAM SEGMENT:     1 REACH:    23 INITIAL WATER CONTENT RESET TO RESIDUAL OF  0.10000E+00
 INITIAL WATER CONTENT IS LESS THAN RESIDUAL WATER CONTENT FOR STREAM SEGMENT:     1 REACH:    24 INITIAL WATER CONTENT RESET TO RESIDUAL OF  0.10000E+00
 INITIAL WATER CONTENT IS LESS THAN RESIDUAL WATER CONTENT FOR STREAM SEGMENT:     1 REACH:    25 INITIAL WATER CONTENT RESET TO RESIDUAL OF  0.10000E+00
 INITIAL WATER CONTENT IS LESS THAN RESIDUAL WATER CONTENT FOR STREAM SEGMENT:     1 REACH:    26 INITIAL WATER CONTENT RESET TO RESIDUAL OF  0.10000E+00
 INITIAL WATER CONTENT IS LESS THAN RESIDUAL WATER CONTENT FOR STREAM SEGMENT:     1 REACH:    27 INITIAL WATER CONTENT RESET TO RESIDUAL OF  0.10000E+00
 INITIAL WATER CONTENT IS LESS THAN RESIDUAL WATER CONTENT FOR STREAM SEGMENT:     1 REACH:    28 INITIAL WATER CONTENT RESET TO RESIDUAL OF  0.10000E+00
 INITIAL WATER CONTENT IS LESS THAN RESIDUAL WATER CONTENT FOR STREAM SEGMENT:     1 REACH:    29 INITIAL WATER CONTENT RESET TO RESIDUAL OF  0.10000E+00
 INITIAL WATER CONTENT IS LESS THAN RESIDUAL WATER CONTENT FOR STREAM SEGMENT:     1 REACH:    30 INITIAL WATER CONTENT RESET TO RESIDUAL OF  0.10000E+00
 INITIAL WATER CONTENT IS LESS THAN RESIDUAL WATER CONTENT FOR STREAM SEGMENT:     1 REACH:    31 INITIAL WATER CONTENT RESET TO RESIDUAL OF  0.10000E+00
 INITIAL WATER CONTENT IS LESS THAN RESIDUAL WATER CONTENT FOR STREAM SEGMENT:     1 REACH:    32 INITIAL WATER CONTENT RESET TO RESIDUAL OF  0.10000E+00
 INITIAL WATER CONTENT IS LESS THAN RESIDUAL WATER CONTENT FOR STREAM SEGMENT:     1 REACH:    33 INITIAL WATER CONTENT RESET TO RESIDUAL OF  0.10000E+00
 INITIAL WATER CONTENT IS LESS THAN RESIDUAL WATER CONTENT FOR STREAM SEGMENT:     1 REACH:    34 INITIAL WATER CONTENT RESET TO RESIDUAL OF  0.10000E+00
 INITIAL WATER CONTENT IS LESS THAN RESIDUAL WATER CONTENT FOR STREAM SEGMENT:     1 REACH:    35 INITIAL WATER CONTENT RESET TO RESIDUAL OF  0.10000E+00
 INITIAL WATER CONTENT IS LESS THAN RESIDUAL WATER CONTENT FOR STREAM SEGMENT:     1 REACH:    36 INITIAL WATER CONTENT RESET TO RESIDUAL OF  0.10000E+00
 INITIAL WATER CONTENT IS LESS THAN RESIDUAL WATER CONTENT FOR STREAM SEGMENT:     1 REACH:    37 INITIAL WATER CONTENT RESET TO RESIDUAL OF  0.10000E+00
 INITIAL WATER CONTENT IS LESS THAN RESIDUAL WATER CONTENT FOR STREAM SEGMENT:     1 REACH:    38 INITIAL WATER CONTENT RESET TO RESIDUAL OF  0.10000E+00
 INITIAL WATER CONTENT IS LESS THAN RESIDUAL WATER CONTENT FOR STREAM SEGMENT:     1 REACH:    39 INITIAL WATER CONTENT RESET TO RESIDUAL OF  0.10000E+00
 INITIAL WATER CONTENT IS LESS THAN RESIDUAL WATER CONTENT FOR STREAM SEGMENT:     1 REACH:    40 INITIAL WATER CONTENT RESET TO RESIDUAL OF  0.10000E+00
 INITIAL WATER CONTENT IS LESS THAN RESIDUAL WATER CONTENT FOR STREAM SEGMENT:     1 REACH:    41 INITIAL WATER CONTENT RESET TO RESIDUAL OF  0.10000E+00
 INITIAL WATER CONTENT IS LESS THAN RESIDUAL WATER CONTENT FOR STREAM SEGMENT:     1 REACH:    42 INITIAL WATER CONTENT RESET TO RESIDUAL OF  0.10000E+00
 INITIAL WATER CONTENT IS LESS THAN RESIDUAL WATER CONTENT FOR STREAM SEGMENT:     1 REACH:    43 INITIAL WATER CONTENT RESET TO RESIDUAL OF  0.10000E+00
 INITIAL WATER CONTENT IS LESS THAN RESIDUAL WATER CONTENT FOR STREAM SEGMENT:     1 REACH:    44 INITIAL WATER CONTENT RESET TO RESIDUAL OF  0.10000E+00
 INITIAL WATER CONTENT IS LESS THAN RESIDUAL WATER CONTENT FOR STREAM SEGMENT:     1 REACH:    45 INITIAL WATER CONTENT RESET TO RESIDUAL OF  0.10000E+00
 INITIAL WATER CONTENT IS LESS THAN RESIDUAL WATER CONTENT FOR STREAM SEGMENT:     1 REACH:    46 INITIAL WATER CONTENT RESET TO RESIDUAL OF  0.10000E+00
 INITIAL WATER CONTENT IS LESS THAN RESIDUAL WATER CONTENT FOR STREAM SEGMENT:     1 REACH:    47 INITIAL WATER CONTENT RESET TO RESIDUAL OF  0.10000E+00
 INITIAL WATER CONTENT IS LESS THAN RESIDUAL WATER CONTENT FOR STREAM SEGMENT:     1 REACH:    48 INITIAL WATER CONTENT RESET TO RESIDUAL OF  0.10000E+00
 INITIAL WATER CONTENT IS LESS THAN RESIDUAL WATER CONTENT FOR STREAM SEGMENT:     1 REACH:    49 INITIAL WATER CONTENT RESET TO RESIDUAL OF  0.10000E+00
 INITIAL WATER CONTENT IS LESS THAN RESIDUAL WATER CONTENT FOR STREAM SEGMENT:     1 REACH:    50 INITIAL WATER CONTENT RESET TO RESIDUAL OF  0.10000E+00
 INITIAL WATER CONTENT IS LESS THAN RESIDUAL WATER CONTENT FOR STREAM SEGMENT:     1 REACH:    51 INITIAL WATER CONTENT RESET TO RESIDUAL OF  0.10000E+00
 INITIAL WATER CONTENT IS LESS THAN RESIDUAL WATER CONTENT FOR STREAM SEGMENT:     1 REACH:    52 INITIAL WATER CONTENT RESET TO RESIDUAL OF  0.10000E+00
 INITIAL WATER CONTENT IS LESS THAN RESIDUAL WATER CONTENT FOR STREAM SEGMENT:     1 REACH:    53 INITIAL WATER CONTENT RESET TO RESIDUAL OF  0.10000E+00
 INITIAL WATER CONTENT IS LESS THAN RESIDUAL WATER CONTENT FOR STREAM SEGMENT:     1 REACH:    54 INITIAL WATER CONTENT RESET TO RESIDUAL OF  0.10000E+00
 INITIAL WATER CONTENT IS LESS THAN RESIDUAL WATER CONTENT FOR STREAM SEGMENT:     1 REACH:    55 INITIAL WATER CONTENT RESET TO RESIDUAL OF  0.10000E+00
 INITIAL WATER CONTENT IS LESS THAN RESIDUAL WATER CONTENT FOR STREAM SEGMENT:     1 REACH:    56 INITIAL WATER CONTENT RESET TO RESIDUAL OF  0.10000E+00
 INITIAL WATER CONTENT IS LESS THAN RESIDUAL WATER CONTENT FOR STREAM SEGMENT:     1 REACH:    57 INITIAL WATER CONTENT RESET TO RESIDUAL OF  0.10000E+00
 INITIAL WATER CONTENT IS LESS THAN RESIDUAL WATER CONTENT FOR STREAM SEGMENT:     1 REACH:    58 INITIAL WATER CONTENT RESET TO RESIDUAL OF  0.10000E+00
 INITIAL WATER CONTENT IS LESS THAN RESIDUAL WATER CONTENT FOR STREAM SEGMENT:     1 REACH:    59 INITIAL WATER CONTENT RESET TO RESIDUAL OF  0.10000E+00
 INITIAL WATER CONTENT IS LESS THAN RESIDUAL WATER CONTENT FOR STREAM SEGMENT:     1 REACH:    60 INITIAL WATER CONTENT RESET TO RESIDUAL OF  0.10000E+00
 INITIAL WATER CONTENT IS LESS THAN RESIDUAL WATER CONTENT FOR STREAM SEGMENT:     1 REACH:    61 INITIAL WATER CONTENT RESET TO RESIDUAL OF  0.10000E+00
 INITIAL WATER CONTENT IS LESS THAN RESIDUAL WATER CONTENT FOR STREAM SEGMENT:     1 REACH:    62 INITIAL WATER CONTENT RESET TO RESIDUAL OF  0.10000E+00
 INITIAL WATER CONTENT IS LESS THAN RESIDUAL WATER CONTENT FOR STREAM SEGMENT:     1 REACH:    63 INITIAL WATER CONTENT RESET TO RESIDUAL OF  0.10000E+00
 INITIAL WATER CONTENT IS LESS THAN RESIDUAL WATER CONTENT FOR STREAM SEGMENT:     1 REACH:    64 INITIAL WATER CONTENT RESET TO RESIDUAL OF  0.10000E+00
 INITIAL WATER CONTENT IS LESS THAN RESIDUAL WATER CONTENT FOR STREAM SEGMENT:     1 REACH:    65 INITIAL WATER CONTENT RESET TO RESIDUAL OF  0.10000E+00
 INITIAL WATER CONTENT IS LESS THAN RESIDUAL WATER CONTENT FOR STREAM SEGMENT:     1 REACH:    66 INITIAL WATER CONTENT RESET TO RESIDUAL OF  0.10000E+00
 INITIAL WATER CONTENT IS LESS THAN RESIDUAL WATER CONTENT FOR STREAM SEGMENT:     1 REACH:    67 INITIAL WATER CONTENT RESET TO RESIDUAL OF  0.10000E+00
 INITIAL WATER CONTENT IS LESS THAN RESIDUAL WATER CONTENT FOR STREAM SEGMENT:     1 REACH:    68 INITIAL WATER CONTENT RESET TO RESIDUAL OF  0.10000E+00
 INITIAL WATER CONTENT IS LESS THAN RESIDUAL WATER CONTENT FOR STREAM SEGMENT:     1 REACH:    69 INITIAL WATER CONTENT RESET TO RESIDUAL OF  0.10000E+00
 INITIAL WATER CONTENT IS LESS THAN RESIDUAL WATER CONTENT FOR STREAM SEGMENT:     1 REACH:    70 INITIAL WATER CONTENT RESET TO RESIDUAL OF  0.10000E+00
 INITIAL WATER CONTENT IS LESS THAN RESIDUAL WATER CONTENT FOR STREAM SEGMENT:     1 REACH:    71 INITIAL WATER CONTENT RESET TO RESIDUAL OF  0.10000E+00
 INITIAL WATER CONTENT IS LESS THAN RESIDUAL WATER CONTENT FOR STREAM SEGMENT:     1 REACH:    72 INITIAL WATER CONTENT RESET TO RESIDUAL OF  0.10000E+00
 INITIAL WATER CONTENT IS LESS THAN RESIDUAL WATER CONTENT FOR STREAM SEGMENT:     1 REACH:    73 INITIAL WATER CONTENT RESET TO RESIDUAL OF  0.10000E+00
 INITIAL WATER CONTENT IS LESS THAN RESIDUAL WATER CONTENT FOR STREAM SEGMENT:     1 REACH:    74 INITIAL WATER CONTENT RESET TO RESIDUAL OF  0.10000E+00
 INITIAL WATER CONTENT IS LESS THAN RESIDUAL WATER CONTENT FOR STREAM SEGMENT:     1 REACH:    75 INITIAL WATER CONTENT RESET TO RESIDUAL OF  0.10000E+00
 INITIAL WATER CONTENT IS LESS THAN RESIDUAL WATER CONTENT FOR STREAM SEGMENT:     1 REACH:    76 INITIAL WATER CONTENT RESET TO RESIDUAL OF  0.10000E+00
 INITIAL WATER CONTENT IS LESS THAN RESIDUAL WATER CONTENT FOR STREAM SEGMENT:     1 REACH:    77 INITIAL WATER CONTENT RESET TO RESIDUAL OF  0.10000E+00
 INITIAL WATER CONTENT IS LESS THAN RESIDUAL WATER CONTENT FOR STREAM SEGMENT:     1 REACH:    78 INITIAL WATER CONTENT RESET TO RESIDUAL OF  0.10000E+00
 INITIAL WATER CONTENT IS LESS THAN RESIDUAL WATER CONTENT FOR STREAM SEGMENT:     1 REACH:    79 INITIAL WATER CONTENT RESET TO RESIDUAL OF  0.10000E+00
 INITIAL WATER CONTENT IS LESS THAN RESIDUAL WATER CONTENT FOR STREAM SEGMENT:     1 REACH:    80 INITIAL WATER CONTENT RESET TO RESIDUAL OF  0.10000E+00
 INITIAL WATER CONTENT IS LESS THAN RESIDUAL WATER CONTENT FOR STREAM SEGMENT:     1 REACH:    81 INITIAL WATER CONTENT RESET TO RESIDUAL OF  0.10000E+00
 INITIAL WATER CONTENT IS LESS THAN RESIDUAL WATER CONTENT FOR STREAM SEGMENT:     1 REACH:    82 INITIAL WATER CONTENT RESET TO RESIDUAL OF  0.10000E+00
 INITIAL WATER CONTENT IS LESS THAN RESIDUAL WATER CONTENT FOR STREAM SEGMENT:     1 REACH:    83 INITIAL WATER CONTENT RESET TO RESIDUAL OF  0.10000E+00
 INITIAL WATER CONTENT IS LESS THAN RESIDUAL WATER CONTENT FOR STREAM SEGMENT:     1 REACH:    84 INITIAL WATER CONTENT RESET TO RESIDUAL OF  0.10000E+00
 INITIAL WATER CONTENT IS LESS THAN RESIDUAL WATER CONTENT FOR STREAM SEGMENT:     1 REACH:    85 INITIAL WATER CONTENT RESET TO RESIDUAL OF  0.10000E+00
 INITIAL WATER CONTENT IS LESS THAN RESIDUAL WATER CONTENT FOR STREAM SEGMENT:     1 REACH:    86 INITIAL WATER CONTENT RESET TO RESIDUAL OF  0.10000E+00
 INITIAL WATER CONTENT IS LESS THAN RESIDUAL WATER CONTENT FOR STREAM SEGMENT:     1 REACH:    87 INITIAL WATER CONTENT RESET TO RESIDUAL OF  0.10000E+00
 INITIAL WATER CONTENT IS LESS THAN RESIDUAL WATER CONTENT FOR STREAM SEGMENT:     1 REACH:    88 INITIAL WATER CONTENT RESET TO RESIDUAL OF  0.10000E+00
 INITIAL WATER CONTENT IS LESS THAN RESIDUAL WATER CONTENT FOR STREAM SEGMENT:     1 REACH:    89 INITIAL WATER CONTENT RESET TO RESIDUAL OF  0.10000E+00
 INITIAL WATER CONTENT IS LESS THAN RESIDUAL WATER CONTENT FOR STREAM SEGMENT:     1 REACH:    90 INITIAL WATER CONTENT RESET TO RESIDUAL OF  0.10000E+00
 INITIAL WATER CONTENT IS LESS THAN RESIDUAL WATER CONTENT FOR STREAM SEGMENT:     1 REACH:    91 INITIAL WATER CONTENT RESET TO RESIDUAL OF  0.10000E+00
 INITIAL WATER CONTENT IS LESS THAN RESIDUAL WATER CONTENT FOR STREAM SEGMENT:     1 REACH:    92 INITIAL WATER CONTENT RESET TO RESIDUAL OF  0.10000E+00
 INITIAL WATER CONTENT IS LESS THAN RESIDUAL WATER CONTENT FOR STREAM SEGMENT:     1 REACH:    93 INITIAL WATER CONTENT RESET TO RESIDUAL OF  0.10000E+00
 INITIAL WATER CONTENT IS LESS THAN RESIDUAL WATER CONTENT FOR STREAM SEGMENT:     1 REACH:    94 INITIAL WATER CONTENT RESET TO RESIDUAL OF  0.10000E+00
 INITIAL WATER CONTENT IS LESS THAN RESIDUAL WATER CONTENT FOR STREAM SEGMENT:     1 REACH:    95 INITIAL WATER CONTENT RESET TO RESIDUAL OF  0.10000E+00
 INITIAL WATER CONTENT IS LESS THAN RESIDUAL WATER CONTENT FOR STREAM SEGMENT:     1 REACH:    96 INITIAL WATER CONTENT RESET TO RESIDUAL OF  0.10000E+00
 INITIAL WATER CONTENT IS LESS THAN RESIDUAL WATER CONTENT FOR STREAM SEGMENT:     1 REACH:    97 INITIAL WATER CONTENT RESET TO RESIDUAL OF  0.10000E+00
 INITIAL WATER CONTENT IS LESS THAN RESIDUAL WATER CONTENT FOR STREAM SEGMENT:     1 REACH:    98 INITIAL WATER CONTENT RESET TO RESIDUAL OF  0.10000E+00
 INITIAL WATER CONTENT IS LESS THAN RESIDUAL WATER CONTENT FOR STREAM SEGMENT:     1 REACH:    99 INITIAL WATER CONTENT RESET TO RESIDUAL OF  0.10000E+00
 INITIAL WATER CONTENT IS LESS THAN RESIDUAL WATER CONTENT FOR STREAM SEGMENT:     1 REACH:   100 INITIAL WATER CONTENT RESET TO RESIDUAL OF  0.10000E+00






   8 GAGING STATIONS WERE SPECIFIED.
     (Lakes are identified by a negative value of the Lake Number)
     RECORDS WILL BE WRITTEN TO SEPARATE OUTPUT FILES REPRESENTED BY FOLLOWING UNIT NUMBERS:

 Stream Gages:
  GAGE #   SEGMENT   REACH   UNIT   OUTTYPE
       1       1      20      83       6
       2       1      20      84       7
       3       1      40      85       6
       4       1      40      86       7
       5       1      60      87       6
       6       1      60      88       7
       7       1      80      89       6
       8       1      80      90       7




1
                            STRESS PERIOD NO.    1, LENGTH =   2592000.    
                            -----------------------------------------------

                              NUMBER OF TIME STEPS =    30

                               MULTIPLIER FOR DELT =     1.100

                            INITIAL TIME STEP SIZE =   15757.40    
 #well time series values for testsfr2 problem
 #well time series values for testsfr2 problem

      1 WELL 

 BOUND. NO. LAYER   ROW   COL     STAGE      CONDUCTANCE         
 ----------------------------------------------------------------
      1      1      1    100       75.00           4.100    
      2      1      2    100       75.00           4.100    
      3      1      3    100       75.00           4.100    
      4      1      4    100       75.00           4.100    
      5      1      5    100       75.00           4.100    
      6      1      6    100       75.00           4.100    
      7      1      7    100       75.00           4.100    

      7 GHB CELLS



 CLASSIFICATION & COUNT OF STREAM SEGMENTS BASED ON SOURCE OF INFLOW:

                HEADWATER     DIVERSION     RECEIVES TRIBUTARY FLOW
                ---------     ---------     -----------------------
                     1              0               0



                    INPUT DATA FOR EACH STREAM SEGMENT
 ---------------------------------------------------------------------------------------------

 SEGMENT    SEG.     INFLOW   OVERLAND   STREAM    STREAM   ICALC  OUTFLOW  DIVERSION PRIORITY
    NO.    LENGTH     RATE     RUNOFF      ET       PPT.    METH.  TO SEG.  FROM SEG.    NO.

      1  2.000E+04 3.000E-01 0.000E+00 0.000E+00 0.000E+00    2        0        0        0


         STREAMBED PROPERTIES AND STREAM DIMENSIONS

 SEGMENT     BED HYD. COND.      BED THICKNESS     ELEV.-TOP OF BED     WIDTH OF STREAM     DEPTH OF STREAM    STREAM ROUGHNESS    SAT. WATER CONT.    INT. WATER CONT.    BROOKS/COREY EPS.     UNSAT. HYD. COND.
    No.     UPPER     LOWER     UPPER     LOWER     UPPER     LOWER     UPPER     LOWER     UPPER     LOWER   CHANNEL      BANK     UPPER     LOWER     UPPER     LOWER     UPPER     LOWER     UPPER

     1  3.500E-07 3.500E-07 5.000E-01 5.000E-01 1.400E+02 1.100E+02                                         3.000E-02 4.000E-02 3.000E-01 3.000E-01 1.000E-01 1.000E-01 3.500E+00 3.500E+00 6.000E-06 6.000E-06

  EIGHT POINT CROSS-SECTION DATA FOR SEGMENTS WITH ICALC = 2
    X VALUES X VALUES START FROM LEFT SIDE LOOKING DOWNSTREAM

     SEGMENT NO.        X1        X2        X3        X4        X5        X6        X7        X8
            1      0.000E+00 2.000E+00 4.000E+00 6.000E+00 8.000E+00 1.000E+01 1.200E+01 1.400E+01

    Z VALUES ARE RELATIVE TO STREAMBED ELEVATION

     SEGMENT NO.          Z1        Z2        Z3        Z4        Z5        Z6        Z7        Z8
            1      6.000E+00 4.500E+00 3.500E+00 0.000E+00 3.000E-01 3.500E+00 4.500E+00 6.000E+00



 
 SOLVING FOR HEAD 
                                                   Max.-Head-Change                         Max.-Flux-Residual
  Residual-Control   Outer-Iter.   Inner-Iter.     Column Row Layer    Maximum-Head-Change  Column Row Layer    Maximum-Flux-Residual          L2-NORM 
          0                 1           7           100    4     1      -0.3188978938E+02     100    1    1        -0.1188999901E+03      0.3145862144E+03
          0                 2           2            98    1     1       0.2662410659E+02     100    5    1         0.1824532323E+02      0.6182001942E+02
          0                 3           7            97    4     1      -0.5713007250E+01     100    3    1        -0.1444810291E+01      0.4212220707E+01
          0                 4           2            97    4     1       0.3791823439E+01      97    5    1         0.8454826984E+00      0.5515513979E+01
          0                 5           7            97    4     1      -0.1262321519E+01      98    5    1        -0.5067975064E-01      0.2353545014E+00
          0                 6           2            93    4     1       0.1072752214E+01      97    5    1         0.2669771128E+00      0.1823972433E+01
          0                 7           3            90    1     1       0.6494627143E+00      86    5    1         0.2687759280E-01      0.1375388094E+00
          0                 8           4            90    1     1      -0.4412059313E-01      84    5    1         0.7185425035E-02      0.2407154167E-01
          0                 9           2            89    1     1       0.1525152947E-01      89    1    1         0.3583859688E-02      0.9125521907E-02
          0                10           2            89    1     1      -0.4845426074E-03      89    1    1        -0.1149661437E-03      0.3770228584E-03
                                                   Max.-Head-Change                         Max.-Flux-Residual
  Residual-Control   Outer-Iter.   Inner-Iter.     Column Row Layer    Maximum-Head-Change  Column Row Layer    Maximum-Flux-Residual          L2-NORM 
          0                11           1            82    2     1       0.1159180262E-04      89    1    1         0.2615980385E-05      0.8697784863E-05
          0                12           1            89    7     1      -0.1361243628E-06      89    7    1        -0.3538621707E-07      0.9353409196E-07

    ------------------------------------------------
       NWT REQUIRED           12 OUTER ITERATIONS 
       AND A TOTAL OF         40 INNER ITERATIONS.
    ------------------------------------------------

 NO OUTPUT CONTROL FOR STRESS PERIOD    1   TIME STEP    1
 
 SOLVING FOR HEAD 
                                                   Max.-Head-Change                         Max.-Flux-Residual
  Residual-Control   Outer-Iter.   Inner-Iter.     Column Row Layer    Maximum-Head-Change  Column Row Layer    Maximum-Flux-Residual          L2-NORM 
          0                 1           3            99    6     1      -0.2683210104E+01     100    3    1        -0.5375326999E+01      0.1378350187E+02
          0                 2           2            99    7     1       0.2606439162E+00     100    7    1         0.5384281931E+00      0.1380643352E+01
          0                 3           2            99    7     1      -0.2328254840E-01     100    1    1        -0.4844701300E-01      0.1242373560E+00
          0                 4           2            99    1     1       0.1847615269E-02     100    1    1         0.3880698948E-02      0.9951622911E-02
          0                 5           2            99    1     1      -0.1287106800E-03     100    1    1        -0.2728087869E-03      0.6995922719E-03
          0                 6           1            99    1     1       0.7728729606E-05     100    7    1         0.1653113674E-04      0.4239287494E-04
          0                 7           1            99    1     1      -0.3905291310E-06     100    1    1        -0.8429332752E-06      0.2161644517E-05

    ------------------------------------------------
       NWT REQUIRED            7 OUTER ITERATIONS 
       AND A TOTAL OF         13 INNER ITERATIONS.
    ------------------------------------------------

 NO OUTPUT CONTROL FOR STRESS PERIOD    1   TIME STEP    2
 
 SOLVING FOR HEAD 
                                                   Max.-Head-Change                         Max.-Flux-Residual
  Residual-Control   Outer-Iter.   Inner-Iter.     Column Row Layer    Maximum-Head-Change  Column Row Layer    Maximum-Flux-Residual          L2-NORM 
          0                 1           3            99    7     1      -0.2224851101E+01      99    6    1        -0.5076423415E+00      0.1587300127E+01
          0                 2           3            99    7     1       0.2139036482E+00      99    6    1         0.4863762991E-01      0.1925098456E+00
          0                 3           2            99    1     1      -0.1914233077E-01      99    2    1        -0.4397124158E-02      0.1736040726E-01
          0                 4           2            99    1     1       0.1518856920E-02      99    2    1         0.3520538513E-03      0.1390286867E-02
          0                 5           1            99    1     1      -0.1058080405E-03      99    2    1        -0.2475021114E-04      0.9773719913E-04
          0                 6           1            99    1     1       0.6351669459E-05      99    1    1         0.1499684728E-05      0.5911720561E-05
          0                 7           1            99    1     1      -0.3208406220E-06      99    7    1        -0.7646908751E-07      0.3008351570E-06

    ------------------------------------------------
       NWT REQUIRED            7 OUTER ITERATIONS 
       AND A TOTAL OF         13 INNER ITERATIONS.
    ------------------------------------------------

 NO OUTPUT CONTROL FOR STRESS PERIOD    1   TIME STEP    3
 
 SOLVING FOR HEAD 
                                                   Max.-Head-Change                         Max.-Flux-Residual
  Residual-Control   Outer-Iter.   Inner-Iter.     Column Row Layer    Maximum-Head-Change  Column Row Layer    Maximum-Flux-Residual          L2-NORM 
          0                 1           3            99    7     1      -0.1851836443E+01      99    1    1        -0.3830437269E+00      0.1141183137E+01
          0                 2           2            99    1     1       0.1779762222E+00      99    1    1         0.3677374070E-01      0.1110733671E+00
          0                 3           2            99    1     1      -0.1592387781E-01      99    7    1        -0.3323752685E-02      0.1002416005E-01
          0                 4           2            99    1     1       0.1263511864E-02      99    1    1         0.2661196375E-03      0.8027141619E-03
          0                 5           1            99    1     1      -0.8802057283E-04      99    7    1        -0.1870866382E-04      0.5643140418E-04
          0                 6           1            99    1     1       0.5284873607E-05      99    7    1         0.1133667656E-05      0.3419052784E-05
          0                 7           1            99    1     1      -0.2670101864E-06      99    7    1        -0.5780584278E-07      0.1743120793E-06

    ------------------------------------------------
       NWT REQUIRED            7 OUTER ITERATIONS 
       AND A TOTAL OF         12 INNER ITERATIONS.
    ------------------------------------------------

 NO OUTPUT CONTROL FOR STRESS PERIOD    1   TIME STEP    4
 
 SOLVING FOR HEAD 
                                                   Max.-Head-Change                         Max.-Flux-Residual
  Residual-Control   Outer-Iter.   Inner-Iter.     Column Row Layer    Maximum-Head-Change  Column Row Layer    Maximum-Flux-Residual          L2-NORM 
          0                 1           3            99    7     1      -0.1555225081E+01      99    7    1        -0.2898490006E+00      0.9322716459E+00
          0                 2           3            99    7     1       0.1499558829E+00      99    1    1         0.2792375562E-01      0.9124686003E-01
          0                 3           2            99    1     1      -0.1341230566E-01      99    1    1        -0.2522950009E-02      0.8230246699E-02
          0                 4           2            99    1     1       0.1064262803E-02      99    1    1         0.2020098080E-03      0.6590979305E-03
          0                 5           1            99    1     1      -0.7413944178E-04      99    1    1        -0.1420158794E-04      0.4633481882E-04
          0                 6           1            99    1     1       0.4450892675E-05      99    7    1         0.8605577260E-06      0.2806768956E-05
          0                 7           1            99    1     1      -0.2248459285E-06      99    7    1        -0.4387993524E-07      0.1430661701E-06

    ------------------------------------------------
       NWT REQUIRED            7 OUTER ITERATIONS 
       AND A TOTAL OF         13 INNER ITERATIONS.
    ------------------------------------------------

 NO OUTPUT CONTROL FOR STRESS PERIOD    1   TIME STEP    5
 
 SOLVING FOR HEAD 
                                                   Max.-Head-Change                         Max.-Flux-Residual
  Residual-Control   Outer-Iter.   Inner-Iter.     Column Row Layer    Maximum-Head-Change  Column Row Layer    Maximum-Flux-Residual          L2-NORM 
          0                 1           3            99    7     1      -0.1319854591E+01      99    7    1        -0.2212237849E+00      0.7871956021E+00
          0                 2           3            99    7     1       0.1277219598E+00      99    1    1         0.2139660090E-01      0.8063306676E-01
          0                 3           2            99    1     1      -0.1141967397E-01      99    1    1        -0.1932424255E-02      0.7268365800E-02
          0                 4           2            99    1     1       0.9061793694E-03      99    1    1         0.1547333680E-03      0.5821042993E-03
          0                 5           1            99    1     1      -0.6312608996E-04      99    1    1        -0.1087794470E-04      0.4092188512E-04
          0                 6           1            99    1     1       0.3789146734E-05      99    1    1         0.6591588253E-06      0.2478764476E-05
          0                 7           1            99    1     1      -0.1913951836E-06      99    7    1        -0.3361058187E-07      0.1263475352E-06

    ------------------------------------------------
       NWT REQUIRED            7 OUTER ITERATIONS 
       AND A TOTAL OF         13 INNER ITERATIONS.
    ------------------------------------------------

 NO OUTPUT CONTROL FOR STRESS PERIOD    1   TIME STEP    6
 
 SOLVING FOR HEAD 
                                                   Max.-Head-Change                         Max.-Flux-Residual
  Residual-Control   Outer-Iter.   Inner-Iter.     Column Row Layer    Maximum-Head-Change  Column Row Layer    Maximum-Flux-Residual          L2-NORM 
          0                 1           3            99    7     1      -0.1132697459E+01      99    1    1        -0.1706153331E+00      0.6830294772E+00
          0                 2           3            99    7     1       0.1099300296E+00      99    7    1         0.1656918678E-01      0.6747890703E-01
          0                 3           2            99    1     1      -0.9825639281E-02      99    1    1        -0.1495809905E-02      0.6080727488E-02
          0                 4           2            99    1     1       0.7797154938E-03      99    1    1         0.1197777447E-03      0.4870049086E-03
          0                 5           1            99    1     1      -0.5431661750E-04      99    7    1        -0.8420490032E-05      0.3423632051E-04
          0                 6           1            99    1     1       0.3260740555E-05      99    7    1         0.5102473035E-06      0.2073943512E-05
          0                 7           1            99    1     1      -0.1647236976E-06      99    1    1        -0.2601756321E-07      0.1057168116E-06

    ------------------------------------------------
       NWT REQUIRED            7 OUTER ITERATIONS 
       AND A TOTAL OF         13 INNER ITERATIONS.
    ------------------------------------------------

 NO OUTPUT CONTROL FOR STRESS PERIOD    1   TIME STEP    7
 
 SOLVING FOR HEAD 
                                                   Max.-Head-Change                         Max.-Flux-Residual
  Residual-Control   Outer-Iter.   Inner-Iter.     Column Row Layer    Maximum-Head-Change  Column Row Layer    Maximum-Flux-Residual          L2-NORM 
          0                 1           3            98    7     1      -0.1018107906E+01      99    7    1        -0.1330726238E+00      0.6048649290E+00
          0                 2           3            98    7     1       0.1001433122E+00      99    7    1         0.1297499847E-01      0.5992904722E-01
          0                 3           2            98    1     1      -0.8938355382E-02      99    1    1        -0.1170856367E-02      0.5398817931E-02
          0                 4           2            98    1     1       0.7094024390E-03      99    1    1         0.9376078221E-04      0.4324029324E-03
          0                 5           1            98    1     1      -0.4941440813E-04      99    1    1        -0.6591448383E-05      0.3039769814E-04
          0                 6           1            98    2     1       0.2964280112E-05      99    1    1         0.3994149615E-06      0.1841020223E-05
          0                 7           1            98    2     1      -0.1496523058E-06      99    7    1        -0.2036621316E-07      0.9382524432E-07

    ------------------------------------------------
       NWT REQUIRED            7 OUTER ITERATIONS 
       AND A TOTAL OF         13 INNER ITERATIONS.
    ------------------------------------------------

 NO OUTPUT CONTROL FOR STRESS PERIOD    1   TIME STEP    8
 
 SOLVING FOR HEAD 
                                                   Max.-Head-Change                         Max.-Flux-Residual
  Residual-Control   Outer-Iter.   Inner-Iter.     Column Row Layer    Maximum-Head-Change  Column Row Layer    Maximum-Flux-Residual          L2-NORM 
          0                 1           3            98    7     1      -0.9824722651E+00      98    7    1        -0.1085917721E+00      0.5453760591E+00
          0                 2           3            98    7     1       0.9655880281E-01      98    7    1         0.1074944304E-01      0.5441325988E-01
          0                 3           2            98    1     1      -0.8619171425E-02      98    7    1        -0.9685209774E-03      0.4900855872E-02
          0                 4           2            98    1     1       0.6840657016E-03      98    1    1         0.7756966871E-04      0.3925285626E-03
          0                 5           1            98    2     1      -0.4764912889E-04      98    1    1        -0.5453097842E-05      0.2759449527E-04
          0                 6           1            98    2     1       0.2857526886E-05      98    2    1         0.3304308756E-06      0.1670496884E-05
          0                 7           1            98    2     1      -0.1442013465E-06      98    2    1        -0.1684869844E-07      0.8509116835E-07

    ------------------------------------------------
       NWT REQUIRED            7 OUTER ITERATIONS 
       AND A TOTAL OF         13 INNER ITERATIONS.
    ------------------------------------------------

 NO OUTPUT CONTROL FOR STRESS PERIOD    1   TIME STEP    9
 
 SOLVING FOR HEAD 
                                                   Max.-Head-Change                         Max.-Flux-Residual
  Residual-Control   Outer-Iter.   Inner-Iter.     Column Row Layer    Maximum-Head-Change  Column Row Layer    Maximum-Flux-Residual          L2-NORM 
          0                 1           3            98    7     1      -0.9401081994E+00      98    7    1        -0.9527225074E-01      0.4991029972E+00
          0                 2           3            98    7     1       0.9237559821E-01      98    7    1         0.9417343665E-02      0.5018379388E-01
          0                 3           2            98    1     1      -0.8246128722E-02      98    1    1        -0.8486207326E-03      0.4519201832E-02
          0                 4           2            98    1     1       0.6544565123E-03      98    1    1         0.6796579158E-04      0.3619664919E-03
          0                 5           1            98    2     1      -0.4558831527E-04      98    1    1        -0.4777958431E-05      0.2544599307E-04
          0                 6           1            98    2     1       0.2735370966E-05      98    6    1         0.2895228945E-06      0.1541076092E-05
          0                 7           1            98    2     1      -0.1381184133E-06      98    6    1        -0.1476280431E-07      0.7853322890E-07

    ------------------------------------------------
       NWT REQUIRED            7 OUTER ITERATIONS 
       AND A TOTAL OF         13 INNER ITERATIONS.
    ------------------------------------------------

 OUTPUT CONTROL FOR STRESS PERIOD    1   TIME STEP   10
    PRINT HEAD FOR ALL LAYERS
    SAVE HEAD FOR ALL LAYERS
    PRINT BUDGET
    SAVE BUDGET

            WELLS   PERIOD    1   STEP  10
 WELL      1   LAYER   1   ROW     3   COL    50   RATE    -1.42000    
 WELL      2   LAYER   1   ROW     5   COL    55   RATE    -1.42000    

  HEAD DEP BOUNDS   PERIOD    1   STEP    10
 BOUNDARY      1   LAYER   1   ROW     1   COL   100   RATE   -0.305383    
 BOUNDARY      2   LAYER   1   ROW     2   COL   100   RATE   -0.305271    
 BOUNDARY      3   LAYER   1   ROW     3   COL   100   RATE   -0.301927    
 BOUNDARY      4   LAYER   1   ROW     4   COL   100   RATE   -0.211001    
 BOUNDARY      5   LAYER   1   ROW     5   COL   100   RATE   -0.301927    
 BOUNDARY      6   LAYER   1   ROW     6   COL   100   RATE   -0.305271    
 BOUNDARY      7   LAYER   1   ROW     7   COL   100   RATE   -0.305383    



 STREAM LISTING     PERIOD      1   STEP       10

 LAYER ROW COL. STREAM  RCH.   FLOW INTO    STREAM     FLOW OUT OF   OVRLND.    DIRECT     STREAM      STREAM      STREAM     STREAM  STREAMBED   FLOW TO   CHNG. UNSAT. 
                SEG.NO.  NO.   STRM. RCH.    LOSS       STRM. RCH.   RUNOFF     PRECIP       ET         HEAD        DEPTH      WIDTH  CONDCTNC.   WAT. TAB.

   1    4    1     1     1    3.0000E-01  3.4737E-04   2.9965E-01  0.000E+00  0.000E+00  0.000E+00  1.40279E+02  4.294E-01  2.326E+00  3.737E-04  0.000E+00  3.474E-04
   1    4    2     1     2    2.9965E-01  3.4724E-04   2.9931E-01  0.000E+00  0.000E+00  0.000E+00  1.39979E+02  4.292E-01  2.326E+00  3.737E-04  0.000E+00  3.472E-04
   1    4    3     1     3    2.9931E-01  3.4710E-04   2.9896E-01  0.000E+00  0.000E+00  0.000E+00  1.39679E+02  4.290E-01  2.326E+00  3.736E-04  0.000E+00  3.471E-04
   1    4    4     1     4    2.9896E-01  3.4696E-04   2.9861E-01  0.000E+00  0.000E+00  0.000E+00  1.39379E+02  4.288E-01  2.326E+00  3.735E-04  0.000E+00  3.470E-04
   1    4    5     1     5    2.9861E-01  3.4682E-04   2.9826E-01  0.000E+00  0.000E+00  0.000E+00  1.39079E+02  4.286E-01  2.325E+00  3.735E-04  0.000E+00  3.468E-04
   1    4    6     1     6    2.9826E-01  3.4669E-04   2.9792E-01  0.000E+00  0.000E+00  0.000E+00  1.38778E+02  4.284E-01  2.325E+00  3.734E-04  0.000E+00  3.467E-04
   1    4    7     1     7    2.9792E-01  3.4655E-04   2.9757E-01  0.000E+00  0.000E+00  0.000E+00  1.38478E+02  4.282E-01  2.325E+00  3.733E-04  0.000E+00  3.466E-04
   1    4    8     1     8    2.9757E-01  3.4641E-04   2.9722E-01  0.000E+00  0.000E+00  0.000E+00  1.38178E+02  4.280E-01  2.325E+00  3.733E-04  0.000E+00  3.464E-04
   1    4    9     1     9    2.9722E-01  3.4628E-04   2.9688E-01  0.000E+00  0.000E+00  0.000E+00  1.37878E+02  4.278E-01  2.324E+00  3.732E-04  0.000E+00  3.463E-04
   1    4   10     1    10    2.9688E-01  3.4614E-04   2.9653E-01  0.000E+00  0.000E+00  0.000E+00  1.37578E+02  4.276E-01  2.324E+00  3.732E-04  0.000E+00  3.461E-04
   1    4   11     1    11    2.9653E-01  3.4600E-04   2.9619E-01  0.000E+00  0.000E+00  0.000E+00  1.37277E+02  4.274E-01  2.324E+00  3.731E-04  0.000E+00  3.460E-04
   1    4   12     1    12    2.9619E-01  3.4586E-04   2.9584E-01  0.000E+00  0.000E+00  0.000E+00  1.36977E+02  4.272E-01  2.324E+00  3.730E-04  0.000E+00  3.459E-04
   1    4   13     1    13    2.9584E-01  3.4573E-04   2.9549E-01  0.000E+00  0.000E+00  0.000E+00  1.36677E+02  4.270E-01  2.323E+00  3.730E-04  0.000E+00  3.457E-04
   1    4   14     1    14    2.9549E-01  3.4559E-04   2.9515E-01  0.000E+00  0.000E+00  0.000E+00  1.36377E+02  4.268E-01  2.323E+00  3.729E-04  0.000E+00  3.456E-04
   1    4   15     1    15    2.9515E-01  3.4545E-04   2.9480E-01  0.000E+00  0.000E+00  0.000E+00  1.36077E+02  4.266E-01  2.323E+00  3.728E-04  0.000E+00  3.455E-04
   1    4   16     1    16    2.9480E-01  3.4531E-04   2.9446E-01  0.000E+00  0.000E+00  0.000E+00  1.35776E+02  4.264E-01  2.323E+00  3.728E-04  0.000E+00  3.453E-04
   1    4   17     1    17    2.9446E-01  3.4518E-04   2.9411E-01  0.000E+00  0.000E+00  0.000E+00  1.35476E+02  4.262E-01  2.322E+00  3.727E-04  0.000E+00  3.452E-04
   1    4   18     1    18    2.9411E-01  3.4504E-04   2.9377E-01  0.000E+00  0.000E+00  0.000E+00  1.35176E+02  4.260E-01  2.322E+00  3.726E-04  0.000E+00  3.450E-04
   1    4   19     1    19    2.9377E-01  3.4490E-04   2.9342E-01  0.000E+00  0.000E+00  0.000E+00  1.34876E+02  4.258E-01  2.322E+00  3.726E-04  0.000E+00  3.449E-04
   1    4   20     1    20    2.9342E-01  3.4477E-04   2.9308E-01  0.000E+00  0.000E+00  0.000E+00  1.34576E+02  4.256E-01  2.322E+00  3.725E-04  0.000E+00  3.448E-04
   1    4   21     1    21    2.9308E-01  3.4463E-04   2.9273E-01  0.000E+00  0.000E+00  0.000E+00  1.34275E+02  4.254E-01  2.321E+00  3.724E-04  0.000E+00  3.446E-04
   1    4   22     1    22    2.9273E-01  3.4449E-04   2.9239E-01  0.000E+00  0.000E+00  0.000E+00  1.33975E+02  4.252E-01  2.321E+00  3.724E-04  0.000E+00  3.445E-04
   1    4   23     1    23    2.9239E-01  3.4435E-04   2.9205E-01  0.000E+00  0.000E+00  0.000E+00  1.33675E+02  4.250E-01  2.321E+00  3.723E-04  0.000E+00  3.444E-04
   1    4   24     1    24    2.9205E-01  3.4422E-04   2.9170E-01  0.000E+00  0.000E+00  0.000E+00  1.33375E+02  4.248E-01  2.321E+00  3.722E-04  0.000E+00  3.442E-04
   1    4   25     1    25    2.9170E-01  3.4408E-04   2.9136E-01  0.000E+00  0.000E+00  0.000E+00  1.33075E+02  4.246E-01  2.320E+00  3.722E-04  0.000E+00  3.441E-04
   1    4   26     1    26    2.9136E-01  3.4394E-04   2.9101E-01  0.000E+00  0.000E+00  0.000E+00  1.32774E+02  4.244E-01  2.320E+00  3.721E-04  0.000E+00  3.439E-04
   1    4   27     1    27    2.9101E-01  3.4381E-04   2.9067E-01  0.000E+00  0.000E+00  0.000E+00  1.32474E+02  4.242E-01  2.320E+00  3.720E-04  0.000E+00  3.438E-04
   1    4   28     1    28    2.9067E-01  3.4367E-04   2.9033E-01  0.000E+00  0.000E+00  0.000E+00  1.32174E+02  4.240E-01  2.320E+00  3.720E-04  0.000E+00  3.437E-04
   1    4   29     1    29    2.9033E-01  3.4353E-04   2.8998E-01  0.000E+00  0.000E+00  0.000E+00  1.31874E+02  4.237E-01  2.319E+00  3.719E-04  0.000E+00  3.435E-04
   1    4   30     1    30    2.8998E-01  3.4339E-04   2.8964E-01  0.000E+00  0.000E+00  0.000E+00  1.31574E+02  4.235E-01  2.319E+00  3.718E-04  0.000E+00  3.434E-04
   1    4   31     1    31    2.8964E-01  3.4326E-04   2.8930E-01  0.000E+00  0.000E+00  0.000E+00  1.31273E+02  4.233E-01  2.319E+00  3.718E-04  0.000E+00  3.433E-04
   1    4   32     1    32    2.8930E-01  3.4312E-04   2.8895E-01  0.000E+00  0.000E+00  0.000E+00  1.30973E+02  4.231E-01  2.319E+00  3.717E-04  0.000E+00  3.431E-04
   1    4   33     1    33    2.8895E-01  3.4298E-04   2.8861E-01  0.000E+00  0.000E+00  0.000E+00  1.30673E+02  4.229E-01  2.319E+00  3.716E-04  0.000E+00  3.430E-04
   1    4   34     1    34    2.8861E-01  3.4285E-04   2.8827E-01  0.000E+00  0.000E+00  0.000E+00  1.30373E+02  4.227E-01  2.318E+00  3.716E-04  0.000E+00  3.428E-04
   1    4   35     1    35    2.8827E-01  3.4271E-04   2.8792E-01  0.000E+00  0.000E+00  0.000E+00  1.30073E+02  4.225E-01  2.318E+00  3.715E-04  0.000E+00  3.427E-04
   1    4   36     1    36    2.8792E-01  3.4257E-04   2.8758E-01  0.000E+00  0.000E+00  0.000E+00  1.29772E+02  4.223E-01  2.318E+00  3.714E-04  0.000E+00  3.426E-04
   1    4   37     1    37    2.8758E-01  3.4244E-04   2.8724E-01  0.000E+00  0.000E+00  0.000E+00  1.29472E+02  4.221E-01  2.318E+00  3.714E-04  0.000E+00  3.424E-04
   1    4   38     1    38    2.8724E-01  3.4230E-04   2.8690E-01  0.000E+00  0.000E+00  0.000E+00  1.29172E+02  4.219E-01  2.317E+00  3.713E-04  0.000E+00  3.423E-04
   1    4   39     1    39    2.8690E-01  3.4216E-04   2.8655E-01  0.000E+00  0.000E+00  0.000E+00  1.28872E+02  4.217E-01  2.317E+00  3.712E-04  0.000E+00  3.422E-04
   1    4   40     1    40    2.8655E-01  3.4203E-04   2.8621E-01  0.000E+00  0.000E+00  0.000E+00  1.28572E+02  4.215E-01  2.317E+00  3.712E-04  0.000E+00  3.420E-04
   1    4   41     1    41    2.8621E-01  3.4189E-04   2.8587E-01  0.000E+00  0.000E+00  0.000E+00  1.28271E+02  4.213E-01  2.317E+00  3.711E-04  0.000E+00  3.419E-04
   1    4   42     1    42    2.8587E-01  3.4175E-04   2.8553E-01  0.000E+00  0.000E+00  0.000E+00  1.27971E+02  4.211E-01  2.316E+00  3.710E-04  0.000E+00  3.418E-04
   1    4   43     1    43    2.8553E-01  3.4162E-04   2.8519E-01  0.000E+00  0.000E+00  0.000E+00  1.27671E+02  4.209E-01  2.316E+00  3.710E-04  0.000E+00  3.416E-04
   1    4   44     1    44    2.8519E-01  3.4148E-04   2.8485E-01  0.000E+00  0.000E+00  0.000E+00  1.27371E+02  4.207E-01  2.316E+00  3.709E-04  0.000E+00  3.415E-04
   1    4   45     1    45    2.8485E-01  3.4134E-04   2.8450E-01  0.000E+00  0.000E+00  0.000E+00  1.27070E+02  4.205E-01  2.316E+00  3.708E-04  0.000E+00  3.413E-04
   1    4   46     1    46    2.8450E-01  3.4121E-04   2.8416E-01  0.000E+00  0.000E+00  0.000E+00  1.26770E+02  4.203E-01  2.315E+00  3.708E-04  0.000E+00  3.412E-04
   1    4   47     1    47    2.8416E-01  3.4107E-04   2.8382E-01  0.000E+00  0.000E+00  0.000E+00  1.26470E+02  4.201E-01  2.315E+00  3.707E-04  0.000E+00  3.411E-04
   1    4   48     1    48    2.8382E-01  3.4093E-04   2.8348E-01  0.000E+00  0.000E+00  0.000E+00  1.26170E+02  4.199E-01  2.315E+00  3.706E-04  0.000E+00  3.409E-04
   1    4   49     1    49    2.8348E-01  3.4080E-04   2.8314E-01  0.000E+00  0.000E+00  0.000E+00  1.25870E+02  4.197E-01  2.315E+00  3.706E-04  0.000E+00  3.408E-04
   1    4   50     1    50    2.8314E-01  3.4066E-04   2.8280E-01  0.000E+00  0.000E+00  0.000E+00  1.25569E+02  4.195E-01  2.314E+00  3.705E-04  0.000E+00  3.407E-04
   1    4   51     1    51    2.8280E-01  3.4052E-04   2.8246E-01  0.000E+00  0.000E+00  0.000E+00  1.25269E+02  4.193E-01  2.314E+00  3.704E-04  0.000E+00  3.405E-04
   1    4   52     1    52    2.8246E-01  3.4039E-04   2.8212E-01  0.000E+00  0.000E+00  0.000E+00  1.24969E+02  4.191E-01  2.314E+00  3.704E-04  0.000E+00  3.404E-04
   1    4   53     1    53    2.8212E-01  3.4025E-04   2.8178E-01  0.000E+00  0.000E+00  0.000E+00  1.24669E+02  4.189E-01  2.314E+00  3.703E-04  0.000E+00  3.402E-04
   1    4   54     1    54    2.8178E-01  3.4011E-04   2.8144E-01  0.000E+00  0.000E+00  0.000E+00  1.24369E+02  4.187E-01  2.313E+00  3.702E-04  0.000E+00  3.401E-04
   1    4   55     1    55    2.8144E-01  3.3998E-04   2.8110E-01  0.000E+00  0.000E+00  0.000E+00  1.24068E+02  4.185E-01  2.313E+00  3.702E-04  0.000E+00  3.400E-04
   1    4   56     1    56    2.8110E-01  3.3984E-04   2.8076E-01  0.000E+00  0.000E+00  0.000E+00  1.23768E+02  4.182E-01  2.313E+00  3.701E-04  0.000E+00  3.398E-04
   1    4   57     1    57    2.8076E-01  3.3970E-04   2.8042E-01  0.000E+00  0.000E+00  0.000E+00  1.23468E+02  4.180E-01  2.313E+00  3.700E-04  0.000E+00  3.397E-04
   1    4   58     1    58    2.8042E-01  3.3957E-04   2.8008E-01  0.000E+00  0.000E+00  0.000E+00  1.23168E+02  4.178E-01  2.312E+00  3.700E-04  0.000E+00  3.396E-04
   1    4   59     1    59    2.8008E-01  3.3943E-04   2.7974E-01  0.000E+00  0.000E+00  0.000E+00  1.22868E+02  4.176E-01  2.312E+00  3.699E-04  0.000E+00  3.394E-04
   1    4   60     1    60    2.7974E-01  3.3929E-04   2.7940E-01  0.000E+00  0.000E+00  0.000E+00  1.22567E+02  4.174E-01  2.312E+00  3.698E-04  0.000E+00  3.393E-04
   1    4   61     1    61    2.7940E-01  3.3916E-04   2.7906E-01  0.000E+00  0.000E+00  0.000E+00  1.22267E+02  4.172E-01  2.312E+00  3.698E-04  0.000E+00  3.392E-04
   1    4   62     1    62    2.7906E-01  3.3902E-04   2.7872E-01  0.000E+00  0.000E+00  0.000E+00  1.21967E+02  4.170E-01  2.311E+00  3.697E-04  0.000E+00  3.390E-04
   1    4   63     1    63    2.7872E-01  3.3889E-04   2.7838E-01  0.000E+00  0.000E+00  0.000E+00  1.21667E+02  4.168E-01  2.311E+00  3.696E-04  0.000E+00  3.389E-04
   1    4   64     1    64    2.7838E-01  3.3875E-04   2.7804E-01  0.000E+00  0.000E+00  0.000E+00  1.21367E+02  4.166E-01  2.311E+00  3.696E-04  0.000E+00  3.387E-04
   1    4   65     1    65    2.7804E-01  3.3861E-04   2.7771E-01  0.000E+00  0.000E+00  0.000E+00  1.21066E+02  4.164E-01  2.311E+00  3.695E-04  0.000E+00  3.386E-04
   1    4   66     1    66    2.7771E-01  3.3848E-04   2.7737E-01  0.000E+00  0.000E+00  0.000E+00  1.20766E+02  4.162E-01  2.310E+00  3.694E-04  0.000E+00  3.385E-04
   1    4   67     1    67    2.7737E-01  3.3834E-04   2.7703E-01  0.000E+00  0.000E+00  0.000E+00  1.20466E+02  4.160E-01  2.310E+00  3.694E-04  0.000E+00  3.383E-04
   1    4   68     1    68    2.7703E-01  3.3820E-04   2.7669E-01  0.000E+00  0.000E+00  0.000E+00  1.20166E+02  4.158E-01  2.310E+00  3.693E-04  0.000E+00  3.382E-04
   1    4   69     1    69    2.7669E-01  3.3807E-04   2.7635E-01  0.000E+00  0.000E+00  0.000E+00  1.19866E+02  4.156E-01  2.310E+00  3.692E-04  0.000E+00  3.381E-04
   1    4   70     1    70    2.7635E-01  3.3793E-04   2.7601E-01  0.000E+00  0.000E+00  0.000E+00  1.19565E+02  4.154E-01  2.309E+00  3.692E-04  0.000E+00  3.379E-04
   1    4   71     1    71    2.7601E-01  3.3779E-04   2.7568E-01  0.000E+00  0.000E+00  0.000E+00  1.19265E+02  4.152E-01  2.309E+00  3.691E-04  0.000E+00  3.378E-04
   1    4   72     1    72    2.7568E-01  3.3766E-04   2.7534E-01  0.000E+00  0.000E+00  0.000E+00  1.18965E+02  4.150E-01  2.309E+00  3.690E-04  0.000E+00  3.377E-04
   1    4   73     1    73    2.7534E-01  3.3752E-04   2.7500E-01  0.000E+00  0.000E+00  0.000E+00  1.18665E+02  4.148E-01  2.309E+00  3.690E-04  0.000E+00  3.375E-04
   1    4   74     1    74    2.7500E-01  3.3739E-04   2.7466E-01  0.000E+00  0.000E+00  0.000E+00  1.18365E+02  4.146E-01  2.309E+00  3.689E-04  0.000E+00  3.374E-04
   1    4   75     1    75    2.7466E-01  3.3725E-04   2.7433E-01  0.000E+00  0.000E+00  0.000E+00  1.18064E+02  4.144E-01  2.308E+00  3.688E-04  0.000E+00  3.373E-04
   1    4   76     1    76    2.7433E-01  3.3711E-04   2.7399E-01  0.000E+00  0.000E+00  0.000E+00  1.17764E+02  4.142E-01  2.308E+00  3.688E-04  0.000E+00  3.371E-04
   1    4   77     1    77    2.7399E-01  3.3698E-04   2.7365E-01  0.000E+00  0.000E+00  0.000E+00  1.17464E+02  4.140E-01  2.308E+00  3.687E-04  0.000E+00  3.370E-04
   1    4   78     1    78    2.7365E-01  3.3684E-04   2.7332E-01  0.000E+00  0.000E+00  0.000E+00  1.17164E+02  4.138E-01  2.308E+00  3.686E-04  0.000E+00  3.368E-04
   1    4   79     1    79    2.7332E-01  3.3671E-04   2.7298E-01  0.000E+00  0.000E+00  0.000E+00  1.16864E+02  4.136E-01  2.307E+00  3.686E-04  0.000E+00  3.367E-04
   1    4   80     1    80    2.7298E-01  3.3657E-04   2.7264E-01  0.000E+00  0.000E+00  0.000E+00  1.16563E+02  4.134E-01  2.307E+00  3.685E-04  0.000E+00  3.366E-04
   1    4   81     1    81    2.7264E-01  3.3643E-04   2.7231E-01  0.000E+00  0.000E+00  0.000E+00  1.16263E+02  4.132E-01  2.307E+00  3.684E-04  0.000E+00  3.364E-04
   1    4   82     1    82    2.7231E-01  3.3630E-04   2.7197E-01  0.000E+00  0.000E+00  0.000E+00  1.15963E+02  4.129E-01  2.307E+00  3.684E-04  0.000E+00  3.363E-04
   1    4   83     1    83    2.7197E-01  3.3616E-04   2.7163E-01  0.000E+00  0.000E+00  0.000E+00  1.15663E+02  4.127E-01  2.306E+00  3.683E-04  0.000E+00  3.362E-04
   1    4   84     1    84    2.7163E-01  3.3603E-04   2.7130E-01  0.000E+00  0.000E+00  0.000E+00  1.15363E+02  4.125E-01  2.306E+00  3.682E-04  0.000E+00  3.360E-04
   1    4   85     1    85    2.7130E-01  3.3589E-04   2.7096E-01  0.000E+00  0.000E+00  0.000E+00  1.15062E+02  4.123E-01  2.306E+00  3.682E-04  0.000E+00  3.359E-04
   1    4   86     1    86    2.7096E-01  3.3575E-04   2.7063E-01  0.000E+00  0.000E+00  0.000E+00  1.14762E+02  4.121E-01  2.306E+00  3.681E-04  0.000E+00  3.358E-04
   1    4   87     1    87    2.7063E-01  3.3562E-04   2.7029E-01  0.000E+00  0.000E+00  0.000E+00  1.14462E+02  4.119E-01  2.305E+00  3.680E-04  0.000E+00  3.356E-04
   1    4   88     1    88    2.7029E-01  3.3548E-04   2.6996E-01  0.000E+00  0.000E+00  0.000E+00  1.14162E+02  4.117E-01  2.305E+00  3.680E-04  0.000E+00  3.355E-04
   1    4   89     1    89    2.6996E-01  3.3535E-04   2.6962E-01  0.000E+00  0.000E+00  0.000E+00  1.13862E+02  4.115E-01  2.305E+00  3.679E-04  0.000E+00  3.353E-04
   1    4   90     1    90    2.6962E-01  3.3521E-04   2.6928E-01  0.000E+00  0.000E+00  0.000E+00  1.13561E+02  4.113E-01  2.305E+00  3.678E-04  0.000E+00  3.352E-04
   1    4   91     1    91    2.6928E-01  3.3507E-04   2.6895E-01  0.000E+00  0.000E+00  0.000E+00  1.13261E+02  4.111E-01  2.304E+00  3.678E-04  0.000E+00  3.351E-04
   1    4   92     1    92    2.6895E-01  3.3494E-04   2.6861E-01  0.000E+00  0.000E+00  0.000E+00  1.12961E+02  4.109E-01  2.304E+00  3.677E-04  0.000E+00  3.349E-04
   1    4   93     1    93    2.6861E-01  3.3480E-04   2.6828E-01  0.000E+00  0.000E+00  0.000E+00  1.12661E+02  4.107E-01  2.304E+00  3.676E-04  0.000E+00  3.348E-04
   1    4   94     1    94    2.6828E-01  3.3467E-04   2.6795E-01  0.000E+00  0.000E+00  0.000E+00  1.12360E+02  4.105E-01  2.304E+00  3.676E-04  0.000E+00  3.347E-04
   1    4   95     1    95    2.6795E-01  3.3453E-04   2.6761E-01  0.000E+00  0.000E+00  0.000E+00  1.12060E+02  4.103E-01  2.303E+00  3.675E-04  0.000E+00  3.345E-04
   1    4   96     1    96    2.6761E-01  3.3440E-04   2.6728E-01  0.000E+00  0.000E+00  0.000E+00  1.11760E+02  4.101E-01  2.303E+00  3.674E-04  0.000E+00  3.344E-04
   1    4   97     1    97    2.6728E-01  3.3426E-04   2.6694E-01  0.000E+00  0.000E+00  0.000E+00  1.11460E+02  4.099E-01  2.303E+00  3.674E-04  0.000E+00  3.343E-04
   1    4   98     1    98    2.6694E-01  3.3412E-04   2.6661E-01  0.000E+00  0.000E+00  0.000E+00  1.11160E+02  4.097E-01  2.303E+00  3.673E-04  0.000E+00  3.341E-04
   1    4   99     1    99    2.6661E-01  3.3399E-04   2.6627E-01  0.000E+00  0.000E+00  0.000E+00  1.10859E+02  4.095E-01  2.302E+00  3.672E-04  0.000E+00  3.340E-04
   1    4  100     1   100    2.6627E-01  3.3385E-04   2.6594E-01  0.000E+00  0.000E+00  0.000E+00  1.10559E+02  4.093E-01  2.302E+00  3.672E-04  0.000E+00  3.339E-04



1
  VOLUMETRIC BUDGET FOR UNSATURATED ZONE BENEATH STREAMS AT END OF TIME STEP    10 STRESS PERIOD   1
  ------------------------------------------------------------------------------------------------

    CUMULATIVE VOLUMES             L**3    RATES FOR THIS TIME STEP         L**3/T
    ------------------                     ------------------------


          STREAM LOSS =         8553.5381            STREAM LOSS =        3.4060E-02
    CHANGE IN STORAGE =         8553.5381      CHANGE IN STORAGE =        3.4060E-02
       RECHARGE TO GW =            0.0000         RECHARGE TO GW =            0.0000

             TOTAL IN =         8553.5381               TOTAL IN =        3.4060E-02

            TOTAL OUT =         8553.5381              TOTAL OUT =        3.4060E-02

             IN - OUT =            0.0000               IN - OUT =       -3.7253E-09

  PERCENT DISCREPANCY =            0.00      PERCENT DISCREPANCY =            -0.00



1
              HEAD IN LAYER   1 AT END OF TIME STEP  10 IN STRESS PERIOD    1
  ---------------------------------------------------------------------------

          1      2      3      4      5      6      7      8      9     10
         11     12     13     14     15     16     17     18     19     20
         21     22     23     24     25     26     27     28     29     30
         31     32     33     34     35     36     37     38     39     40
         41     42     43     44     45     46     47     48     49     50
         51     52     53     54     55     56     57     58     59     60
         61     62     63     64     65     66     67     68     69     70
         71     72     73     74     75     76     77     78     79     80
         81     82     83     84     85     86     87     88     89     90
         91     92     93     94     95     96     97     98     99    100
 .........................................................................
   1   104.0  104.0  104.0  104.0  104.0  104.0  104.0  104.0  104.0  104.0
       104.0  104.0  104.0  104.0  104.0  104.0  104.0  104.0  104.0  104.0
       104.0  104.0  104.0  104.0  104.0  104.0  104.0  104.0  104.0  104.0
       104.0  104.0  104.0  104.0  104.0  104.0  104.0  104.0  104.0  104.0
       104.0  104.0  104.0  104.0  103.9  103.7  103.4  102.5  101.0   98.9
       100.8  102.0  102.3  101.8  101.3  102.1  102.9  103.5  103.8  103.9
       104.0  104.0  104.0  104.0  104.0  104.0  104.0  104.0  104.0  104.0
       104.0  104.0  104.0  104.0  104.0  104.0  104.0  104.0  104.0  104.0
       104.0  104.0  103.9  103.8  103.7  103.5  103.3  103.1  102.9  102.6
       102.3  102.0  101.6  101.0  100.4   99.1   96.6   92.2   85.0   75.1
   2   104.0  104.0  104.0  104.0  104.0  104.0  104.0  104.0  104.0  104.0
       104.0  104.0  104.0  104.0  104.0  104.0  104.0  104.0  104.0  104.0
       104.0  104.0  104.0  104.0  104.0  104.0  104.0  104.0  104.0  104.0
       104.0  104.0  104.0  104.0  104.0  104.0  104.0  104.0  104.0  104.0
       104.0  104.0  104.0  104.0  103.9  103.7  103.4  102.5  100.8   97.9
       100.6  102.0  102.3  101.6  100.8  101.9  102.9  103.5  103.8  103.9
       104.0  104.0  104.0  104.0  104.0  104.0  104.0  104.0  104.0  104.0
       104.0  104.0  104.0  104.0  104.0  104.0  104.0  104.0  104.0  104.0
       104.0  104.0  103.9  103.8  103.7  103.5  103.3  103.1  102.9  102.6
       102.3  102.0  101.6  101.0  100.4   99.1   96.6   92.2   85.0   75.1
   3   104.0  104.0  104.0  104.0  104.0  104.0  104.0  104.0  104.0  104.0
       104.0  104.0  104.0  104.0  104.0  104.0  104.0  104.0  104.0  104.0
       104.0  104.0  104.0  104.0  104.0  104.0  104.0  104.0  104.0  104.0
       104.0  104.0  104.0  104.0  104.0  104.0  104.0  104.0  104.0  104.0
       104.0  104.0  104.0  104.0  103.9  103.8  103.4  102.6  100.7   95.3
       100.5  102.0  102.2  101.3   99.7  101.5  102.8  103.4  103.8  103.9
       104.0  104.0  104.0  104.0  104.0  104.0  104.0  104.0  104.0  104.0
       104.0  104.0  104.0  104.0  104.0  104.0  104.0  104.0  104.0  104.0
       104.0  104.0  103.9  103.8  103.7  103.5  103.3  103.1  102.9  102.6
       102.3  102.0  101.6  101.0  100.4   99.1   96.6   92.2   85.0   75.1
   4   104.0  104.0  104.0  104.0  104.0  104.0  104.0  104.0  104.0  104.0
       104.0  104.0  104.0  104.0  104.0  104.0  104.0  104.0  104.0  104.0
       104.0  104.0  104.0  104.0  104.0  104.0  104.0  104.0  104.0  104.0
       104.0  104.0  104.0  104.0  104.0  104.0  104.0  104.0  104.0  104.0
       104.0  104.0  104.0  104.0  103.9  103.8  103.4  102.7  101.1   97.9
       100.9  102.1  102.1  100.9   97.9  101.1  102.7  103.4  103.8  103.9
       104.0  104.0  104.0  104.0  104.0  104.0  104.0  104.0  104.0  104.0
       104.0  104.0  104.0  104.0  104.0  104.0  104.0  104.0  104.0  104.0
       104.0  104.0  103.9  103.8  103.7  103.5  103.3  103.1  102.9  102.6
       102.3  102.0  101.6  101.0  100.4   99.1   96.6   92.2   85.0   75.1
   5   104.0  104.0  104.0  104.0  104.0  104.0  104.0  104.0  104.0  104.0
       104.0  104.0  104.0  104.0  104.0  104.0  104.0  104.0  104.0  104.0
       104.0  104.0  104.0  104.0  104.0  104.0  104.0  104.0  104.0  104.0
       104.0  104.0  104.0  104.0  104.0  104.0  104.0  104.0  104.0  104.0
       104.0  104.0  104.0  104.0  103.9  103.8  103.4  102.8  101.5   99.7
       101.3  102.2  102.0  100.5   95.3  100.7  102.6  103.4  103.8  103.9
       104.0  104.0  104.0  104.0  104.0  104.0  104.0  104.0  104.0  104.0
       104.0  104.0  104.0  104.0  104.0  104.0  104.0  104.0  104.0  104.0
       104.0  104.0  103.9  103.8  103.7  103.5  103.3  103.1  102.9  102.6
       102.3  102.0  101.6  101.0  100.4   99.1   96.6   92.2   85.0   75.1
   6   104.0  104.0  104.0  104.0  104.0  104.0  104.0  104.0  104.0  104.0
       104.0  104.0  104.0  104.0  104.0  104.0  104.0  104.0  104.0  104.0
       104.0  104.0  104.0  104.0  104.0  104.0  104.0  104.0  104.0  104.0
       104.0  104.0  104.0  104.0  104.0  104.0  104.0  104.0  104.0  104.0
       104.0  104.0  104.0  104.0  103.9  103.8  103.5  102.9  101.9  100.8
       101.6  102.3  102.0  100.6   97.9  100.8  102.5  103.4  103.7  103.9
       104.0  104.0  104.0  104.0  104.0  104.0  104.0  104.0  104.0  104.0
       104.0  104.0  104.0  104.0  104.0  104.0  104.0  104.0  104.0  104.0
       104.0  104.0  103.9  103.8  103.7  103.5  103.3  103.1  102.9  102.6
       102.3  102.0  101.6  101.0  100.4   99.1   96.6   92.2   85.0   75.1
   7   104.0  104.0  104.0  104.0  104.0  104.0  104.0  104.0  104.0  104.0
       104.0  104.0  104.0  104.0  104.0  104.0  104.0  104.0  104.0  104.0
       104.0  104.0  104.0  104.0  104.0  104.0  104.0  104.0  104.0  104.0
       104.0  104.0  104.0  104.0  104.0  104.0  104.0  104.0  104.0  104.0
       104.0  104.0  104.0  104.0  103.9  103.8  103.5  102.9  102.1  101.3
       101.8  102.3  102.0  100.8   98.9  101.0  102.5  103.4  103.7  103.9
       104.0  104.0  104.0  104.0  104.0  104.0  104.0  104.0  104.0  104.0
       104.0  104.0  104.0  104.0  104.0  104.0  104.0  104.0  104.0  104.0
       104.0  104.0  103.9  103.8  103.7  103.5  103.3  103.1  102.9  102.6
       102.3  102.0  101.6  101.0  100.4   99.1   96.6   92.2   85.0   75.1

 HEAD WILL BE SAVED ON UNIT   51 AT END OF TIME STEP   10, STRESS PERIOD    1
1
  VOLUMETRIC BUDGET FOR ENTIRE MODEL AT END OF TIME STEP   10, STRESS PERIOD   1
  ------------------------------------------------------------------------------

     CUMULATIVE VOLUMES      L**3       RATES FOR THIS TIME STEP      L**3/T
     ------------------                 ------------------------

           IN:                                      IN:
           ---                                      ---
             STORAGE     =     2051264.8750               STORAGE     =           4.8762
       CONSTANT HEAD     =           0.0000         CONSTANT HEAD     =           0.0000
               WELLS     =           0.0000                 WELLS     =           0.0000
     HEAD DEP BOUNDS     =           0.0000       HEAD DEP BOUNDS     =           0.0000
      STREAM LEAKAGE     =           0.0000        STREAM LEAKAGE     =           0.0000

                TOTAL IN =     2051264.8750                  TOTAL IN =           4.8762

          OUT:                                     OUT:
          ----                                     ----
             STORAGE     =       5.5412E-08               STORAGE     =       1.5200E-13
       CONSTANT HEAD     =           0.0000         CONSTANT HEAD     =           0.0000
               WELLS     =      713216.1250                 WELLS     =           2.8400
     HEAD DEP BOUNDS     =     1338048.6250       HEAD DEP BOUNDS     =           2.0362
      STREAM LEAKAGE     =           0.0000        STREAM LEAKAGE     =           0.0000

               TOTAL OUT =     2051264.7500                 TOTAL OUT =           4.8762

                IN - OUT =           0.1250                  IN - OUT =           0.0000

     PERCENT DISCREPANCY =           0.00         PERCENT DISCREPANCY =           0.00






         TIME SUMMARY AT END OF TIME STEP   10 IN STRESS PERIOD    1
                    SECONDS     MINUTES      HOURS       DAYS        YEARS
                    -----------------------------------------------------------
   TIME STEP LENGTH  37155.      619.25      10.321     0.43004     1.17738E-03
 STRESS PERIOD TIME 2.51132E+05  4185.5      69.759      2.9066     7.95791E-03
         TOTAL TIME 2.51132E+05  4185.5      69.759      2.9066     7.95791E-03
1
 
 SOLVING FOR HEAD 
                                                   Max.-Head-Change                         Max.-Flux-Residual
  Residual-Control   Outer-Iter.   Inner-Iter.     Column Row Layer    Maximum-Head-Change  Column Row Layer    Maximum-Flux-Residual          L2-NORM 
          0                 1           3            98    7     1      -0.8946413770E+00      98    7    1        -0.8287824707E-01      0.4621037520E+00
          0                 2           3            98    7     1       0.8787070604E-01      98    7    1         0.8185673314E-02      0.4599773452E-01
          0                 3           2            98    1     1      -0.7844108728E-02      98    7    1        -0.7376902171E-03      0.4141817332E-02
          0                 4           2            98    1     1       0.6225490472E-03      98    1    1         0.5908095441E-04      0.3317430122E-03
          0                 5           1            98    2     1      -0.4336549806E-04      98    1    1        -0.4153364227E-05      0.2332127278E-04
          0                 6           1            98    2     1       0.2601691750E-05      98    6    1         0.2516762017E-06      0.1412166057E-05
          0                 7           1            98    2     1      -0.1313588834E-06      98    6    1        -0.1283300932E-07      0.7195129862E-07

    ------------------------------------------------
       NWT REQUIRED            7 OUTER ITERATIONS 
       AND A TOTAL OF         13 INNER ITERATIONS.
    ------------------------------------------------

 NO OUTPUT CONTROL FOR STRESS PERIOD    1   TIME STEP   11
 
 SOLVING FOR HEAD 
                                                   Max.-Head-Change                         Max.-Flux-Residual
  Residual-Control   Outer-Iter.   Inner-Iter.     Column Row Layer    Maximum-Head-Change  Column Row Layer    Maximum-Flux-Residual          L2-NORM 
          0                 1           3            98    7     1      -0.8484390357E+00      98    7    1        -0.7170299689E-01      0.4306681372E+00
          0                 2           2            98    1     1       0.8333739615E-01      98    7    1         0.7079607583E-02      0.4290963667E-01
          0                 3           2            98    1     1      -0.7439362865E-02      98    1    1        -0.6380305055E-03      0.3862757282E-02
          0                 4           2            98    1     1       0.5904273544E-03      98    1    1         0.5109917609E-04      0.3095728454E-03
          0                 5           1            98    2     1      -0.4112755519E-04      98    1    1        -0.3592252707E-05      0.2175159736E-04
          0                 6           1            98    2     1       0.2466924620E-05      98    2    1         0.2176757334E-06      0.1316784580E-05
          0                 7           1            98    2     1      -0.1245102407E-06      98    2    1        -0.1109931347E-07      0.6707076457E-07

    ------------------------------------------------
       NWT REQUIRED            7 OUTER ITERATIONS 
       AND A TOTAL OF         12 INNER ITERATIONS.
    ------------------------------------------------

 NO OUTPUT CONTROL FOR STRESS PERIOD    1   TIME STEP   12
 
 SOLVING FOR HEAD 
                                                   Max.-Head-Change                         Max.-Flux-Residual
  Residual-Control   Outer-Iter.   Inner-Iter.     Column Row Layer    Maximum-Head-Change  Column Row Layer    Maximum-Flux-Residual          L2-NORM 
          0                 1           3            98    7     1      -0.8029280962E+00      98    7    1        -0.6181784363E-01      0.4048729704E+00
          0                 2           2            98    1     1       0.7888376630E-01      98    7    1         0.6103729620E-02      0.4043908160E-01
          0                 3           2            98    1     1      -0.7041623303E-02      98    1    1        -0.5500784619E-03      0.3640762798E-02
          0                 4           2            98    1     1       0.5588617549E-03      98    1    1         0.4405523246E-04      0.2916146746E-03
          0                 5           1            98    2     1      -0.3892775289E-04      98    2    1        -0.3097069012E-05      0.2050024998E-04
          0                 6           1            98    2     1       0.2333844974E-05      98    6    1         0.1876699649E-06      0.1240342622E-05
          0                 7           1            98    2     1      -0.1177295612E-06      98    2    1        -0.9569312454E-08      0.6314069764E-07

    ------------------------------------------------
       NWT REQUIRED            7 OUTER ITERATIONS 
       AND A TOTAL OF         12 INNER ITERATIONS.
    ------------------------------------------------

 NO OUTPUT CONTROL FOR STRESS PERIOD    1   TIME STEP   13
 
 SOLVING FOR HEAD 
                                                   Max.-Head-Change                         Max.-Flux-Residual
  Residual-Control   Outer-Iter.   Inner-Iter.     Column Row Layer    Maximum-Head-Change  Column Row Layer    Maximum-Flux-Residual          L2-NORM 
          0                 1           3            97    1     1      -0.7661798433E+00      98    7    1        -0.5318240733E-01      0.3831630789E+00
          0                 2           2            97    7     1       0.7553454050E-01      98    7    1         0.5252564319E-02      0.3821000542E-01
          0                 3           2            97    7     1      -0.6740154259E-02      98    1    1        -0.4733554314E-03      0.3439914643E-02
          0                 4           2            97    7     1       0.5349554863E-03      98    1    1         0.3791069651E-04      0.2755286242E-03
          0                 5           1            97    7     1      -0.3726214250E-04      98    2    1        -0.2665109687E-05      0.1936940781E-04
          0                 6           1            97    7     1       0.2233444385E-05      98    6    1         0.1614949738E-06      0.1171763243E-05
          0                 7           1            97    7     1      -0.1126395966E-06      98    6    1        -0.8234653848E-08      0.5963977676E-07

    ------------------------------------------------
       NWT REQUIRED            7 OUTER ITERATIONS 
       AND A TOTAL OF         12 INNER ITERATIONS.
    ------------------------------------------------

 NO OUTPUT CONTROL FOR STRESS PERIOD    1   TIME STEP   14
 
 SOLVING FOR HEAD 
                                                   Max.-Head-Change                         Max.-Flux-Residual
  Residual-Control   Outer-Iter.   Inner-Iter.     Column Row Layer    Maximum-Head-Change  Column Row Layer    Maximum-Flux-Residual          L2-NORM 
          0                 1           3            97    1     1      -0.7531786740E+00      97    1    1        -0.4611887002E-01      0.3646553498E+00
          0                 2           3            97    1     1       0.7426479057E-01      91    3    1         0.6164741943E-02      0.3959904353E-01
          0                 3           2            97    7     1      -0.6627120265E-02      91    3    1        -0.5558183730E-03      0.3565563376E-02
          0                 4           2            97    7     1       0.5259823558E-03      91    3    1         0.4451314090E-04      0.2855876621E-03
          0                 5           1            97    7     1      -0.3663657433E-04      91    3    1        -0.3129280504E-05      0.2007654990E-04
          0                 6           1            97    7     1       0.2195334314E-05      91    5    1         0.1896217938E-06      0.1212782481E-05
          0                 7           1            97    7     1      -0.1106767332E-06      91    3    1        -0.9668848833E-08      0.6162970839E-07

    ------------------------------------------------
       NWT REQUIRED            7 OUTER ITERATIONS 
       AND A TOTAL OF         13 INNER ITERATIONS.
    ------------------------------------------------

 NO OUTPUT CONTROL FOR STRESS PERIOD    1   TIME STEP   15
 
 SOLVING FOR HEAD 
                                                   Max.-Head-Change                         Max.-Flux-Residual
  Residual-Control   Outer-Iter.   Inner-Iter.     Column Row Layer    Maximum-Head-Change  Column Row Layer    Maximum-Flux-Residual          L2-NORM 
          0                 1           3            52    1     1      -0.7558579937E+00      97    7    1        -0.4121415892E-01      0.3484052631E+00
          0                 2           2            53    7     1       0.7481660312E-01      97    7    1         0.4087875633E-02      0.3476453331E-01
          0                 3           2            53    7     1      -0.6673151720E-02      97    1    1        -0.3682327744E-03      0.3129535421E-02
          0                 4           2            53    7     1       0.5296624977E-03      97    1    1         0.2949287162E-04      0.2506696982E-03
          0                 5           1            53    7     1      -0.3689385738E-04      97    1    1        -0.2073336514E-05      0.1762184720E-04
          0                 6           1            53    7     1       0.2211832495E-05      97    1    1         0.1256359212E-06      0.1065491663E-05
          0                 7           1            53    7     1      -0.1115512252E-06      97    7    1        -0.6406189801E-08      0.5419590226E-07

    ------------------------------------------------
       NWT REQUIRED            7 OUTER ITERATIONS 
       AND A TOTAL OF         12 INNER ITERATIONS.
    ------------------------------------------------

 NO OUTPUT CONTROL FOR STRESS PERIOD    1   TIME STEP   16
 
 SOLVING FOR HEAD 
                                                   Max.-Head-Change                         Max.-Flux-Residual
  Residual-Control   Outer-Iter.   Inner-Iter.     Column Row Layer    Maximum-Head-Change  Column Row Layer    Maximum-Flux-Residual          L2-NORM 
          0                 1           3            52    2     1      -0.8113610286E+00      52    1    1        -0.3758610560E-01      0.3341325516E+00
          0                 2           2            52    2     1       0.8028961810E-01      52    1    1         0.3752907844E-02      0.3334635731E-01
          0                 3           2            52    2     1      -0.7161509729E-02      53    7    1        -0.3378179494E-03      0.3001809581E-02
          0                 4           2            52    2     1       0.5684225887E-03      53    7    1         0.2705877775E-04      0.2404393008E-03
          0                 5           1            52    2     1      -0.3959262485E-04      53    7    1        -0.1902208624E-05      0.1690263593E-04
          0                 6           1            52    3     1       0.2372947865E-05      53    7    1         0.1152663027E-06      0.1021382389E-05
          0                 7           1            52    3     1      -0.1196558973E-06      53    7    1        -0.5877440312E-08      0.5191926390E-07

    ------------------------------------------------
       NWT REQUIRED            7 OUTER ITERATIONS 
       AND A TOTAL OF         12 INNER ITERATIONS.
    ------------------------------------------------

 NO OUTPUT CONTROL FOR STRESS PERIOD    1   TIME STEP   17
 
 SOLVING FOR HEAD 
                                                   Max.-Head-Change                         Max.-Flux-Residual
  Residual-Control   Outer-Iter.   Inner-Iter.     Column Row Layer    Maximum-Head-Change  Column Row Layer    Maximum-Flux-Residual          L2-NORM 
          0                 1           3            52    2     1      -0.8685659652E+00      52    2    1        -0.3667920363E-01      0.3214568517E+00
          0                 2           2            52    2     1       0.8592912872E-01      52    2    1         0.3661169943E-02      0.3215530892E-01
          0                 3           2            52    2     1      -0.7664744906E-02      52    2    1        -0.3295717464E-03      0.2894554784E-02
          0                 4           2            52    2     1       0.6083640086E-03      52    2    1         0.2639817547E-04      0.2318487984E-03
          0                 5           1            52    2     1      -0.4237357361E-04      52    2    1        -0.1855769433E-05      0.1629873814E-04
          0                 6           1            52    3     1       0.2538771030E-05      52    2    1         0.1124522910E-06      0.9840656581E-06
          0                 7           1            52    3     1      -0.1279673004E-06      52    2    1        -0.5733934216E-08      0.4997353876E-07

    ------------------------------------------------
       NWT REQUIRED            7 OUTER ITERATIONS 
       AND A TOTAL OF         12 INNER ITERATIONS.
    ------------------------------------------------

 NO OUTPUT CONTROL FOR STRESS PERIOD    1   TIME STEP   18
 
 SOLVING FOR HEAD 
                                                   Max.-Head-Change                         Max.-Flux-Residual
  Residual-Control   Outer-Iter.   Inner-Iter.     Column Row Layer    Maximum-Head-Change  Column Row Layer    Maximum-Flux-Residual          L2-NORM 
          0                 1           3            52    2     1      -0.9277310437E+00      52    2    1        -0.3569658805E-01      0.3100540072E+00
          0                 2           2            52    2     1       0.9176012723E-01      90    2    1         0.4898735694E-02      0.3335185467E-01
          0                 3           2            52    2     1      -0.8185078193E-02      90    6    1        -0.4420385523E-03      0.3003116998E-02
          0                 4           2            52    2     1       0.6496617895E-03      90    2    1         0.3539809230E-04      0.2405372608E-03
          0                 5           1            52    2     1      -0.4524385556E-04      90    2    1        -0.2488509505E-05      0.1690954481E-04
          0                 6           1            53    7     1       0.2705295280E-05      90    6    1         0.1507935643E-06      0.1017537701E-05
          0                 7           1            53    7     1      -0.1360235311E-06      90    2    1        -0.7688981896E-08      0.5147738304E-07

    ------------------------------------------------
       NWT REQUIRED            7 OUTER ITERATIONS 
       AND A TOTAL OF         12 INNER ITERATIONS.
    ------------------------------------------------

 NO OUTPUT CONTROL FOR STRESS PERIOD    1   TIME STEP   19
 
 SOLVING FOR HEAD 
                                                   Max.-Head-Change                         Max.-Flux-Residual
  Residual-Control   Outer-Iter.   Inner-Iter.     Column Row Layer    Maximum-Head-Change  Column Row Layer    Maximum-Flux-Residual          L2-NORM 
          0                 1           3            52    2     1      -0.9891701191E+00      52    2    1        -0.3466282422E-01      0.2994098034E+00
          0                 2           2            52    2     1       0.9781329597E-01      52    2    1         0.3457852305E-02      0.2988707977E-01
          0                 3           2            52    2     1      -0.8725257030E-02      52    2    1        -0.3112895495E-03      0.2690348087E-02
          0                 4           2            52    2     1       0.6925345733E-03      52    2    1         0.2493364066E-04      0.2154923378E-03
          0                 5           1            52    2     1      -0.4823331277E-04      52    2    1        -0.1752814889E-05      0.1514888970E-04
          0                 6           1            53    5     1       0.2887168158E-05      52    2    1         0.1062136477E-06      0.9137474817E-06
          0                 7           1            53    5     1      -0.1453622543E-06      52    2    1        -0.5415845550E-08      0.4635058478E-07

    ------------------------------------------------
       NWT REQUIRED            7 OUTER ITERATIONS 
       AND A TOTAL OF         12 INNER ITERATIONS.
    ------------------------------------------------

 NO OUTPUT CONTROL FOR STRESS PERIOD    1   TIME STEP   20
 
 SOLVING FOR HEAD 
                                                   Max.-Head-Change                         Max.-Flux-Residual
  Residual-Control   Outer-Iter.   Inner-Iter.     Column Row Layer    Maximum-Head-Change  Column Row Layer    Maximum-Flux-Residual          L2-NORM 
          0                 1           3            52    2     1      -0.1053205462E+01      52    2    1        -0.3359933910E-01      0.2897003657E+00
          0                 2           2            52    2     1       0.1041200094E+00      52    2    1         0.3350875857E-02      0.2891767430E-01
          0                 3           2            52    2     1      -0.9288077659E-02      52    2    1        -0.3016678907E-03      0.2603081016E-02
          0                 4           2            52    2     1       0.7372035981E-03      52    2    1         0.2416289609E-04      0.2085020624E-03
          0                 5           1            52    2     1      -0.5134307894E-04      52    2    1        -0.1698632609E-05      0.1465745427E-04
          0                 6           1            52    3     1       0.3072726064E-05      52    3    1         0.1029334307E-06      0.8831713896E-06
          0                 7           1            53    4     1      -0.1546837647E-06      52    3    1        -0.5249457757E-08      0.4475034935E-07

    ------------------------------------------------
       NWT REQUIRED            7 OUTER ITERATIONS 
       AND A TOTAL OF         12 INNER ITERATIONS.
    ------------------------------------------------

 NO OUTPUT CONTROL FOR STRESS PERIOD    1   TIME STEP   21
 
 SOLVING FOR HEAD 
                                                   Max.-Head-Change                         Max.-Flux-Residual
  Residual-Control   Outer-Iter.   Inner-Iter.     Column Row Layer    Maximum-Head-Change  Column Row Layer    Maximum-Flux-Residual          L2-NORM 
          0                 1           3            52    2     1      -0.1120169729E+01      52    2    1        -0.3252301543E-01      0.2807711537E+00
          0                 2           2            52    2     1       0.1107125480E+00      53    6    1         0.3242744489E-02      0.2803489991E-01
          0                 3           2            52    2     1      -0.9876433680E-02      52    2    1        -0.2919411257E-03      0.2523600588E-02
          0                 4           2            52    2     1       0.7838991679E-03      52    2    1         0.2338374185E-04      0.2025132956E-03
          0                 5           1            52    2     1      -0.5459407367E-04      52    2    1        -0.1643859072E-05      0.1423643037E-04
          0                 6           1            52    3     1       0.3266684856E-05      52    3    1         0.9972849568E-07      0.8566514954E-06
          0                 7           1            53    4     1      -0.1644466059E-06      52    3    1        -0.5093838240E-08      0.4334381943E-07

    ------------------------------------------------
       NWT REQUIRED            7 OUTER ITERATIONS 
       AND A TOTAL OF         12 INNER ITERATIONS.
    ------------------------------------------------

 NO OUTPUT CONTROL FOR STRESS PERIOD    1   TIME STEP   22
 
 SOLVING FOR HEAD 
                                                   Max.-Head-Change                         Max.-Flux-Residual
  Residual-Control   Outer-Iter.   Inner-Iter.     Column Row Layer    Maximum-Head-Change  Column Row Layer    Maximum-Flux-Residual          L2-NORM 
          0                 1           3            53    6     1      -0.1190409138E+01      52    2    1        -0.3144703572E-01      0.2724768589E+00
          0                 2           2            52    2     1       0.1176243567E+00      53    6    1         0.3134769382E-02      0.2719580560E-01
          0                 3           2            52    2     1      -0.1049329335E-01      52    2    1        -0.2822273636E-03      0.2448091143E-02
          0                 4           2            52    2     1       0.8328553939E-03      52    2    1         0.2260563765E-04      0.1960866282E-03
          0                 5           1            52    2     1      -0.5800246914E-04      52    2    1        -0.1589159300E-05      0.1378459440E-04
          0                 6           1            52    3     1       0.3471102837E-05      52    3    1         0.9673580692E-07      0.8283880303E-06
          0                 7           1            53    4     1      -0.1748068918E-06      52    3    1        -0.4960451605E-08      0.4186187814E-07

    ------------------------------------------------
       NWT REQUIRED            7 OUTER ITERATIONS 
       AND A TOTAL OF         12 INNER ITERATIONS.
    ------------------------------------------------

 NO OUTPUT CONTROL FOR STRESS PERIOD    1   TIME STEP   23
 
 SOLVING FOR HEAD 
                                                   Max.-Head-Change                         Max.-Flux-Residual
  Residual-Control   Outer-Iter.   Inner-Iter.     Column Row Layer    Maximum-Head-Change  Column Row Layer    Maximum-Flux-Residual          L2-NORM 
          0                 1           3            53    6     1      -0.1264289361E+01      53    6    1        -0.3038160461E-01      0.2646622728E+00
          0                 2           3            53    6     1       0.1248915110E+00      53    6    1         0.3027967167E-02      0.2641370807E-01
          0                 3           2            52    2     1      -0.1114197760E-01      53    6    1        -0.2726181589E-03      0.2377721061E-02
          0                 4           2            52    2     1       0.8843364338E-03      52    2    1         0.2183591581E-04      0.1904491318E-03
          0                 5           1            52    2     1      -0.6158719746E-04      52    2    1        -0.1535048757E-05      0.1338821696E-04
          0                 6           1            52    3     1       0.3686866233E-05      52    3    1         0.9384593014E-07      0.8031385855E-06
          0                 7           1            52    3     1      -0.1856301023E-06      52    3    1        -0.4836063994E-08      0.4051955384E-07

    ------------------------------------------------
       NWT REQUIRED            7 OUTER ITERATIONS 
       AND A TOTAL OF         13 INNER ITERATIONS.
    ------------------------------------------------

 NO OUTPUT CONTROL FOR STRESS PERIOD    1   TIME STEP   24
 
 SOLVING FOR HEAD 
                                                   Max.-Head-Change                         Max.-Flux-Residual
  Residual-Control   Outer-Iter.   Inner-Iter.     Column Row Layer    Maximum-Head-Change  Column Row Layer    Maximum-Flux-Residual          L2-NORM 
          0                 1           3            53    6     1      -0.1342196129E+01      53    6    1        -0.2933457370E-01      0.2573525113E+00
          0                 2           3            53    6     1       0.1325493408E+00      53    6    1         0.2923121103E-02      0.2568161585E-01
          0                 3           2            53    6     1      -0.1182553461E-01      53    6    1        -0.2631841335E-03      0.2311835445E-02
          0                 4           2            53    6     1       0.9385820668E-03      52    2    1         0.2108023099E-04      0.1851702708E-03
          0                 5           1            52    2     1      -0.6536303591E-04      52    2    1        -0.1481924951E-05      0.1301700764E-04
          0                 6           1            53    4     1       0.3913176383E-05      52    3    1         0.9087931119E-07      0.7790099648E-06
          0                 7           1            53    4     1      -0.1971753021E-06      52    3    1        -0.4699327150E-08      0.3921969285E-07

    ------------------------------------------------
       NWT REQUIRED            7 OUTER ITERATIONS 
       AND A TOTAL OF         13 INNER ITERATIONS.
    ------------------------------------------------

 NO OUTPUT CONTROL FOR STRESS PERIOD    1   TIME STEP   25
 
 SOLVING FOR HEAD 
                                                   Max.-Head-Change                         Max.-Flux-Residual
  Residual-Control   Outer-Iter.   Inner-Iter.     Column Row Layer    Maximum-Head-Change  Column Row Layer    Maximum-Flux-Residual          L2-NORM 
          0                 1           3            55    5     1      -0.1426159172E+01      53    6    1        -0.2831190835E-01      0.2504575974E+00
          0                 2           3            53    6     1       0.1406382627E+00      53    6    1         0.2820829664E-02      0.2499070753E-01
          0                 3           2            52    2     1      -0.1254761602E-01      53    6    1        -0.2539791335E-03      0.2249656468E-02
          0                 4           2            52    2     1       0.9958714104E-03      52    2    1         0.2034290171E-04      0.1801873574E-03
          0                 5           1            52    3     1      -0.6935182193E-04      52    2    1        -0.1430091473E-05      0.1266652767E-04
          0                 6           1            52    3     1       0.4152711980E-05      52    3    1         0.8815966979E-07      0.7558119654E-06
          0                 7           1            53    4     1      -0.2092862148E-06      52    3    1        -0.4590045677E-08      0.3796784106E-07

    ------------------------------------------------
       NWT REQUIRED            7 OUTER ITERATIONS 
       AND A TOTAL OF         13 INNER ITERATIONS.
    ------------------------------------------------

 NO OUTPUT CONTROL FOR STRESS PERIOD    1   TIME STEP   26
 
 SOLVING FOR HEAD 
                                                   Max.-Head-Change                         Max.-Flux-Residual
  Residual-Control   Outer-Iter.   Inner-Iter.     Column Row Layer    Maximum-Head-Change  Column Row Layer    Maximum-Flux-Residual          L2-NORM 
          0                 1           3            55    5     1      -0.1523305714E+01      55    5    1        -0.2736849157E-01      0.2439287358E+00
          0                 2           3            53    6     1       0.1492011732E+00      53    6    1         0.2721548353E-02      0.2433625724E-01
          0                 3           2            52    2     1      -0.1331207552E-01      53    6    1        -0.2450442298E-03      0.2190756356E-02
          0                 4           2            52    2     1       0.1056516898E-02      52    2    1         0.1962720934E-04      0.1754659096E-03
          0                 5           1            52    3     1      -0.7357875012E-04      52    2    1        -0.1379779007E-05      0.1233433426E-04
          0                 6           1            53    4     1       0.4411766261E-05      52    3    1         0.8588251887E-07      0.7337536960E-06
          0                 7           1            53    4     1      -0.2227355799E-06      52    3    1        -0.4521499619E-08      0.3679549386E-07

    ------------------------------------------------
       NWT REQUIRED            7 OUTER ITERATIONS 
       AND A TOTAL OF         13 INNER ITERATIONS.
    ------------------------------------------------

 NO OUTPUT CONTROL FOR STRESS PERIOD    1   TIME STEP   27
 
 SOLVING FOR HEAD 
                                                   Max.-Head-Change                         Max.-Flux-Residual
  Residual-Control   Outer-Iter.   Inner-Iter.     Column Row Layer    Maximum-Head-Change  Column Row Layer    Maximum-Flux-Residual          L2-NORM 
          0                 1           3            55    5     1      -0.1627032375E+01      55    5    1        -0.2657985315E-01      0.2377275848E+00
          0                 2           3            55    5     1       0.1589669343E+00      53    6    1         0.2625625314E-02      0.2371463272E-01
          0                 3           2            55    5     1      -0.1419685738E-01      53    6    1        -0.2364107496E-03      0.2134804964E-02
          0                 4           2            55    5     1       0.1126608754E-02      52    2    1         0.1893566372E-04      0.1709788050E-03
          0                 5           1            55    5     1      -0.7844787745E-04      52    2    1        -0.1331164016E-05      0.1201846501E-04
          0                 6           1            53    4     1       0.4690426465E-05      52    3    1         0.8391287665E-07      0.7125072166E-06
          0                 7           1            53    4     1      -0.2373753055E-06      52    3    1        -0.4481101712E-08      0.3568632088E-07

    ------------------------------------------------
       NWT REQUIRED            7 OUTER ITERATIONS 
       AND A TOTAL OF         13 INNER ITERATIONS.
    ------------------------------------------------

 NO OUTPUT CONTROL FOR STRESS PERIOD    1   TIME STEP   28
 
 SOLVING FOR HEAD 
                                                   Max.-Head-Change                         Max.-Flux-Residual
  Residual-Control   Outer-Iter.   Inner-Iter.     Column Row Layer    Maximum-Head-Change  Column Row Layer    Maximum-Flux-Residual          L2-NORM 
          0                 1           3            55    5     1      -0.1737998339E+01      55    5    1        -0.2581236787E-01      0.2318226971E+00
          0                 2           3            55    5     1       0.1694890510E+00      53    6    1         0.2533327158E-02      0.2312299236E-01
          0                 3           2            55    5     1      -0.1513904837E-01      53    6    1        -0.2281026892E-03      0.2081541869E-02
          0                 4           2            55    5     1       0.1201300791E-02      52    2    1         0.1827018364E-04      0.1667042804E-03
          0                 5           1            55    5     1      -0.8365000246E-04      52    2    1        -0.1284381359E-05      0.1171731577E-04
          0                 6           1            55    5     1       0.4995967165E-05      52    3    1         0.8229113035E-07      0.6920347803E-06
          0                 7           1            53    4     1      -0.2534175985E-06      52    3    1        -0.4472656912E-08      0.3465524472E-07

    ------------------------------------------------
       NWT REQUIRED            7 OUTER ITERATIONS 
       AND A TOTAL OF         13 INNER ITERATIONS.
    ------------------------------------------------

 NO OUTPUT CONTROL FOR STRESS PERIOD    1   TIME STEP   29
 
 SOLVING FOR HEAD 
                                                   Max.-Head-Change                         Max.-Flux-Residual
  Residual-Control   Outer-Iter.   Inner-Iter.     Column Row Layer    Maximum-Head-Change  Column Row Layer    Maximum-Flux-Residual          L2-NORM 
          0                 1           3            55    5     1      -0.1857019915E+01      55    5    1        -0.2507264673E-01      0.2261901337E+00
          0                 2           3            55    5     1       0.1807011454E+00      55    6    1         0.2449942951E-02      0.2255936948E-01
          0                 3           2            55    5     1      -0.1614349681E-01      55    6    1        -0.2203536877E-03      0.2030783899E-02
          0                 4           2            55    5     1       0.1280885927E-02      50    2    1         0.1765139220E-04      0.1626262531E-03
          0                 5           1            55    5     1      -0.8918707615E-04      50    2    1        -0.1240868119E-05      0.1142964105E-04
          0                 6           1            55    5     1       0.5328699601E-05      52    3    1         0.8077866553E-07      0.6718628902E-06
          0                 7           1            53    4     1      -0.2703715027E-06      52    3    1        -0.4465142922E-08      0.3367650379E-07

    ------------------------------------------------
       NWT REQUIRED            7 OUTER ITERATIONS 
       AND A TOTAL OF         13 INNER ITERATIONS.
    ------------------------------------------------

 OUTPUT CONTROL FOR STRESS PERIOD    1   TIME STEP   30
    PRINT HEAD FOR ALL LAYERS
    SAVE HEAD FOR ALL LAYERS
    PRINT BUDGET
    SAVE BUDGET

            WELLS   PERIOD    1   STEP  30
 WELL      1   LAYER   1   ROW     3   COL    50   RATE    -1.42000    
 WELL      2   LAYER   1   ROW     5   COL    55   RATE    -1.42000    

  HEAD DEP BOUNDS   PERIOD    1   STEP    30
 BOUNDARY      1   LAYER   1   ROW     1   COL   100   RATE   -0.101049    
 BOUNDARY      2   LAYER   1   ROW     2   COL   100   RATE   -0.101013    
 BOUNDARY      3   LAYER   1   ROW     3   COL   100   RATE   -9.991057E-02
 BOUNDARY      4   LAYER   1   ROW     4   COL   100   RATE   -6.984172E-02
 BOUNDARY      5   LAYER   1   ROW     5   COL   100   RATE   -9.991057E-02
 BOUNDARY      6   LAYER   1   ROW     6   COL   100   RATE   -0.101013    
 BOUNDARY      7   LAYER   1   ROW     7   COL   100   RATE   -0.101049    



 STREAM LISTING     PERIOD      1   STEP       30

 LAYER ROW COL. STREAM  RCH.   FLOW INTO    STREAM     FLOW OUT OF   OVRLND.    DIRECT     STREAM      STREAM      STREAM     STREAM  STREAMBED   FLOW TO   CHNG. UNSAT. 
                SEG.NO.  NO.   STRM. RCH.    LOSS       STRM. RCH.   RUNOFF     PRECIP       ET         HEAD        DEPTH      WIDTH  CONDCTNC.   WAT. TAB.

   1    4    1     1     1    3.0000E-01  3.4737E-04   2.9965E-01  0.000E+00  0.000E+00  0.000E+00  1.40279E+02  4.294E-01  2.326E+00  3.737E-04  0.000E+00  3.474E-04
   1    4    2     1     2    2.9965E-01  3.4724E-04   2.9931E-01  0.000E+00  0.000E+00  0.000E+00  1.39979E+02  4.292E-01  2.326E+00  3.737E-04  0.000E+00  3.472E-04
   1    4    3     1     3    2.9931E-01  3.4710E-04   2.9896E-01  0.000E+00  0.000E+00  0.000E+00  1.39679E+02  4.290E-01  2.326E+00  3.736E-04  0.000E+00  3.471E-04
   1    4    4     1     4    2.9896E-01  3.4696E-04   2.9861E-01  0.000E+00  0.000E+00  0.000E+00  1.39379E+02  4.288E-01  2.326E+00  3.735E-04  0.000E+00  3.470E-04
   1    4    5     1     5    2.9861E-01  3.4682E-04   2.9826E-01  0.000E+00  0.000E+00  0.000E+00  1.39079E+02  4.286E-01  2.325E+00  3.735E-04  0.000E+00  3.468E-04
   1    4    6     1     6    2.9826E-01  3.4669E-04   2.9792E-01  0.000E+00  0.000E+00  0.000E+00  1.38778E+02  4.284E-01  2.325E+00  3.734E-04  0.000E+00  3.467E-04
   1    4    7     1     7    2.9792E-01  3.4655E-04   2.9757E-01  0.000E+00  0.000E+00  0.000E+00  1.38478E+02  4.282E-01  2.325E+00  3.733E-04  0.000E+00  3.466E-04
   1    4    8     1     8    2.9757E-01  3.4641E-04   2.9722E-01  0.000E+00  0.000E+00  0.000E+00  1.38178E+02  4.280E-01  2.325E+00  3.733E-04  0.000E+00  3.464E-04
   1    4    9     1     9    2.9722E-01  3.4628E-04   2.9688E-01  0.000E+00  0.000E+00  0.000E+00  1.37878E+02  4.278E-01  2.324E+00  3.732E-04  0.000E+00  3.463E-04
   1    4   10     1    10    2.9688E-01  3.4614E-04   2.9653E-01  0.000E+00  0.000E+00  0.000E+00  1.37578E+02  4.276E-01  2.324E+00  3.732E-04  0.000E+00  3.461E-04
   1    4   11     1    11    2.9653E-01  3.4600E-04   2.9619E-01  0.000E+00  0.000E+00  0.000E+00  1.37277E+02  4.274E-01  2.324E+00  3.731E-04  0.000E+00  3.460E-04
   1    4   12     1    12    2.9619E-01  3.4586E-04   2.9584E-01  0.000E+00  0.000E+00  0.000E+00  1.36977E+02  4.272E-01  2.324E+00  3.730E-04  0.000E+00  3.459E-04
   1    4   13     1    13    2.9584E-01  3.4573E-04   2.9549E-01  0.000E+00  0.000E+00  0.000E+00  1.36677E+02  4.270E-01  2.323E+00  3.730E-04  0.000E+00  3.457E-04
   1    4   14     1    14    2.9549E-01  3.4559E-04   2.9515E-01  0.000E+00  0.000E+00  0.000E+00  1.36377E+02  4.268E-01  2.323E+00  3.729E-04  0.000E+00  3.456E-04
   1    4   15     1    15    2.9515E-01  3.4545E-04   2.9480E-01  0.000E+00  0.000E+00  0.000E+00  1.36077E+02  4.266E-01  2.323E+00  3.728E-04  0.000E+00  3.455E-04
   1    4   16     1    16    2.9480E-01  3.4531E-04   2.9446E-01  0.000E+00  0.000E+00  0.000E+00  1.35776E+02  4.264E-01  2.323E+00  3.728E-04  0.000E+00  3.453E-04
   1    4   17     1    17    2.9446E-01  3.4518E-04   2.9411E-01  0.000E+00  0.000E+00  0.000E+00  1.35476E+02  4.262E-01  2.322E+00  3.727E-04  0.000E+00  3.452E-04
   1    4   18     1    18    2.9411E-01  3.4504E-04   2.9377E-01  0.000E+00  0.000E+00  0.000E+00  1.35176E+02  4.260E-01  2.322E+00  3.726E-04  0.000E+00  3.450E-04
   1    4   19     1    19    2.9377E-01  3.4490E-04   2.9342E-01  0.000E+00  0.000E+00  0.000E+00  1.34876E+02  4.258E-01  2.322E+00  3.726E-04  0.000E+00  3.449E-04
   1    4   20     1    20    2.9342E-01  3.4477E-04   2.9308E-01  0.000E+00  0.000E+00  0.000E+00  1.34576E+02  4.256E-01  2.322E+00  3.725E-04  0.000E+00  3.448E-04
   1    4   21     1    21    2.9308E-01  3.4463E-04   2.9273E-01  0.000E+00  0.000E+00  0.000E+00  1.34275E+02  4.254E-01  2.321E+00  3.724E-04  0.000E+00  3.446E-04
   1    4   22     1    22    2.9273E-01  3.4449E-04   2.9239E-01  0.000E+00  0.000E+00  0.000E+00  1.33975E+02  4.252E-01  2.321E+00  3.724E-04  0.000E+00  3.445E-04
   1    4   23     1    23    2.9239E-01  3.4435E-04   2.9205E-01  0.000E+00  0.000E+00  0.000E+00  1.33675E+02  4.250E-01  2.321E+00  3.723E-04  0.000E+00  3.444E-04
   1    4   24     1    24    2.9205E-01  3.4422E-04   2.9170E-01  0.000E+00  0.000E+00  0.000E+00  1.33375E+02  4.248E-01  2.321E+00  3.722E-04  0.000E+00  3.442E-04
   1    4   25     1    25    2.9170E-01  3.4408E-04   2.9136E-01  0.000E+00  0.000E+00  0.000E+00  1.33075E+02  4.246E-01  2.320E+00  3.722E-04  0.000E+00  3.441E-04
   1    4   26     1    26    2.9136E-01  3.4394E-04   2.9101E-01  0.000E+00  0.000E+00  0.000E+00  1.32774E+02  4.244E-01  2.320E+00  3.721E-04  0.000E+00  3.439E-04
   1    4   27     1    27    2.9101E-01  3.4381E-04   2.9067E-01  0.000E+00  0.000E+00  0.000E+00  1.32474E+02  4.242E-01  2.320E+00  3.720E-04  0.000E+00  3.438E-04
   1    4   28     1    28    2.9067E-01  3.4367E-04   2.9033E-01  0.000E+00  0.000E+00  0.000E+00  1.32174E+02  4.240E-01  2.320E+00  3.720E-04  0.000E+00  3.437E-04
   1    4   29     1    29    2.9033E-01  3.4353E-04   2.8998E-01  0.000E+00  0.000E+00  0.000E+00  1.31874E+02  4.237E-01  2.319E+00  3.719E-04  0.000E+00  3.435E-04
   1    4   30     1    30    2.8998E-01  3.4339E-04   2.8964E-01  0.000E+00  0.000E+00  0.000E+00  1.31574E+02  4.235E-01  2.319E+00  3.718E-04  0.000E+00  3.434E-04
   1    4   31     1    31    2.8964E-01  3.4326E-04   2.8930E-01  0.000E+00  0.000E+00  0.000E+00  1.31273E+02  4.233E-01  2.319E+00  3.718E-04  0.000E+00  3.433E-04
   1    4   32     1    32    2.8930E-01  3.4312E-04   2.8895E-01  0.000E+00  0.000E+00  0.000E+00  1.30973E+02  4.231E-01  2.319E+00  3.717E-04  0.000E+00  3.431E-04
   1    4   33     1    33    2.8895E-01  3.4298E-04   2.8861E-01  0.000E+00  0.000E+00  0.000E+00  1.30673E+02  4.229E-01  2.319E+00  3.716E-04  0.000E+00  3.430E-04
   1    4   34     1    34    2.8861E-01  3.4285E-04   2.8827E-01  0.000E+00  0.000E+00  0.000E+00  1.30373E+02  4.227E-01  2.318E+00  3.716E-04  0.000E+00  3.428E-04
   1    4   35     1    35    2.8827E-01  3.4271E-04   2.8792E-01  0.000E+00  0.000E+00  0.000E+00  1.30073E+02  4.225E-01  2.318E+00  3.715E-04  0.000E+00  3.427E-04
   1    4   36     1    36    2.8792E-01  3.4257E-04   2.8758E-01  0.000E+00  0.000E+00  0.000E+00  1.29772E+02  4.223E-01  2.318E+00  3.714E-04  0.000E+00  3.426E-04
   1    4   37     1    37    2.8758E-01  3.4244E-04   2.8724E-01  0.000E+00  0.000E+00  0.000E+00  1.29472E+02  4.221E-01  2.318E+00  3.714E-04  0.000E+00  3.424E-04
   1    4   38     1    38    2.8724E-01  3.4230E-04   2.8690E-01  0.000E+00  0.000E+00  0.000E+00  1.29172E+02  4.219E-01  2.317E+00  3.713E-04  0.000E+00  3.423E-04
   1    4   39     1    39    2.8690E-01  3.4216E-04   2.8655E-01  0.000E+00  0.000E+00  0.000E+00  1.28872E+02  4.217E-01  2.317E+00  3.712E-04  0.000E+00  3.422E-04
   1    4   40     1    40    2.8655E-01  3.4203E-04   2.8621E-01  0.000E+00  0.000E+00  0.000E+00  1.28572E+02  4.215E-01  2.317E+00  3.712E-04  0.000E+00  3.420E-04
   1    4   41     1    41    2.8621E-01  3.4189E-04   2.8587E-01  0.000E+00  0.000E+00  0.000E+00  1.28271E+02  4.213E-01  2.317E+00  3.711E-04  0.000E+00  3.419E-04
   1    4   42     1    42    2.8587E-01  3.4175E-04   2.8553E-01  0.000E+00  0.000E+00  0.000E+00  1.27971E+02  4.211E-01  2.316E+00  3.710E-04  0.000E+00  3.418E-04
   1    4   43     1    43    2.8553E-01  3.4162E-04   2.8519E-01  0.000E+00  0.000E+00  0.000E+00  1.27671E+02  4.209E-01  2.316E+00  3.710E-04  0.000E+00  3.416E-04
   1    4   44     1    44    2.8519E-01  3.4148E-04   2.8485E-01  0.000E+00  0.000E+00  0.000E+00  1.27371E+02  4.207E-01  2.316E+00  3.709E-04  0.000E+00  3.415E-04
   1    4   45     1    45    2.8485E-01  3.4134E-04   2.8450E-01  0.000E+00  0.000E+00  0.000E+00  1.27070E+02  4.205E-01  2.316E+00  3.708E-04  0.000E+00  3.413E-04
   1    4   46     1    46    2.8450E-01  3.4121E-04   2.8416E-01  0.000E+00  0.000E+00  0.000E+00  1.26770E+02  4.203E-01  2.315E+00  3.708E-04  0.000E+00  3.412E-04
   1    4   47     1    47    2.8416E-01  3.4107E-04   2.8382E-01  0.000E+00  0.000E+00  0.000E+00  1.26470E+02  4.201E-01  2.315E+00  3.707E-04  0.000E+00  3.411E-04
   1    4   48     1    48    2.8382E-01  3.4093E-04   2.8348E-01  0.000E+00  0.000E+00  0.000E+00  1.26170E+02  4.199E-01  2.315E+00  3.706E-04  0.000E+00  3.409E-04
   1    4   49     1    49    2.8348E-01  3.4080E-04   2.8314E-01  0.000E+00  0.000E+00  0.000E+00  1.25870E+02  4.197E-01  2.315E+00  3.706E-04  0.000E+00  3.408E-04
   1    4   50     1    50    2.8314E-01  3.4066E-04   2.8280E-01  0.000E+00  0.000E+00  0.000E+00  1.25569E+02  4.195E-01  2.314E+00  3.705E-04  0.000E+00  3.407E-04
   1    4   51     1    51    2.8280E-01  3.4052E-04   2.8246E-01  0.000E+00  0.000E+00  0.000E+00  1.25269E+02  4.193E-01  2.314E+00  3.704E-04  0.000E+00  3.405E-04
   1    4   52     1    52    2.8246E-01  3.4039E-04   2.8212E-01  0.000E+00  0.000E+00  0.000E+00  1.24969E+02  4.191E-01  2.314E+00  3.704E-04  0.000E+00  3.404E-04
   1    4   53     1    53    2.8212E-01  3.4025E-04   2.8178E-01  0.000E+00  0.000E+00  0.000E+00  1.24669E+02  4.189E-01  2.314E+00  3.703E-04  0.000E+00  3.402E-04
   1    4   54     1    54    2.8178E-01  3.4011E-04   2.8144E-01  0.000E+00  0.000E+00  0.000E+00  1.24369E+02  4.187E-01  2.313E+00  3.702E-04  0.000E+00  3.401E-04
   1    4   55     1    55    2.8144E-01  3.3998E-04   2.8110E-01  0.000E+00  0.000E+00  0.000E+00  1.24068E+02  4.185E-01  2.313E+00  3.702E-04  0.000E+00  3.400E-04
   1    4   56     1    56    2.8110E-01  3.3984E-04   2.8076E-01  0.000E+00  0.000E+00  0.000E+00  1.23768E+02  4.182E-01  2.313E+00  3.701E-04  0.000E+00  3.398E-04
   1    4   57     1    57    2.8076E-01  3.3970E-04   2.8042E-01  0.000E+00  0.000E+00  0.000E+00  1.23468E+02  4.180E-01  2.313E+00  3.700E-04  0.000E+00  3.397E-04
   1    4   58     1    58    2.8042E-01  3.3957E-04   2.8008E-01  0.000E+00  0.000E+00  0.000E+00  1.23168E+02  4.178E-01  2.312E+00  3.700E-04  0.000E+00  3.396E-04
   1    4   59     1    59    2.8008E-01  3.3943E-04   2.7974E-01  0.000E+00  0.000E+00  0.000E+00  1.22868E+02  4.176E-01  2.312E+00  3.699E-04  0.000E+00  3.394E-04
   1    4   60     1    60    2.7974E-01  3.3929E-04   2.7940E-01  0.000E+00  0.000E+00  0.000E+00  1.22567E+02  4.174E-01  2.312E+00  3.698E-04  0.000E+00  3.393E-04
   1    4   61     1    61    2.7940E-01  3.3916E-04   2.7906E-01  0.000E+00  0.000E+00  0.000E+00  1.22267E+02  4.172E-01  2.312E+00  3.698E-04  0.000E+00  3.392E-04
   1    4   62     1    62    2.7906E-01  3.3902E-04   2.7872E-01  0.000E+00  0.000E+00  0.000E+00  1.21967E+02  4.170E-01  2.311E+00  3.697E-04  0.000E+00  3.390E-04
   1    4   63     1    63    2.7872E-01  3.3889E-04   2.7838E-01  0.000E+00  0.000E+00  0.000E+00  1.21667E+02  4.168E-01  2.311E+00  3.696E-04  0.000E+00  3.389E-04
   1    4   64     1    64    2.7838E-01  3.3875E-04   2.7804E-01  0.000E+00  0.000E+00  0.000E+00  1.21367E+02  4.166E-01  2.311E+00  3.696E-04  0.000E+00  3.387E-04
   1    4   65     1    65    2.7804E-01  3.3861E-04   2.7771E-01  0.000E+00  0.000E+00  0.000E+00  1.21066E+02  4.164E-01  2.311E+00  3.695E-04  0.000E+00  3.386E-04
   1    4   66     1    66    2.7771E-01  3.3848E-04   2.7737E-01  0.000E+00  0.000E+00  0.000E+00  1.20766E+02  4.162E-01  2.310E+00  3.694E-04  0.000E+00  3.385E-04
   1    4   67     1    67    2.7737E-01  3.3834E-04   2.7703E-01  0.000E+00  0.000E+00  0.000E+00  1.20466E+02  4.160E-01  2.310E+00  3.694E-04  0.000E+00  3.383E-04
   1    4   68     1    68    2.7703E-01  3.3820E-04   2.7669E-01  0.000E+00  0.000E+00  0.000E+00  1.20166E+02  4.158E-01  2.310E+00  3.693E-04  0.000E+00  3.382E-04
   1    4   69     1    69    2.7669E-01  3.3807E-04   2.7635E-01  0.000E+00  0.000E+00  0.000E+00  1.19866E+02  4.156E-01  2.310E+00  3.692E-04  0.000E+00  3.381E-04
   1    4   70     1    70    2.7635E-01  3.3793E-04   2.7601E-01  0.000E+00  0.000E+00  0.000E+00  1.19565E+02  4.154E-01  2.309E+00  3.692E-04  0.000E+00  3.379E-04
   1    4   71     1    71    2.7601E-01  3.3779E-04   2.7568E-01  0.000E+00  0.000E+00  0.000E+00  1.19265E+02  4.152E-01  2.309E+00  3.691E-04  0.000E+00  3.378E-04
   1    4   72     1    72    2.7568E-01  3.3766E-04   2.7534E-01  0.000E+00  0.000E+00  0.000E+00  1.18965E+02  4.150E-01  2.309E+00  3.690E-04  0.000E+00  3.377E-04
   1    4   73     1    73    2.7534E-01  3.3752E-04   2.7500E-01  0.000E+00  0.000E+00  0.000E+00  1.18665E+02  4.148E-01  2.309E+00  3.690E-04  0.000E+00  3.375E-04
   1    4   74     1    74    2.7500E-01  3.3739E-04   2.7466E-01  0.000E+00  0.000E+00  0.000E+00  1.18365E+02  4.146E-01  2.309E+00  3.689E-04  0.000E+00  3.374E-04
   1    4   75     1    75    2.7466E-01  3.3725E-04   2.7433E-01  0.000E+00  0.000E+00  0.000E+00  1.18064E+02  4.144E-01  2.308E+00  3.688E-04  0.000E+00  3.373E-04
   1    4   76     1    76    2.7433E-01  3.3711E-04   2.7399E-01  0.000E+00  0.000E+00  0.000E+00  1.17764E+02  4.142E-01  2.308E+00  3.688E-04  0.000E+00  3.371E-04
   1    4   77     1    77    2.7399E-01  3.3698E-04   2.7365E-01  0.000E+00  0.000E+00  0.000E+00  1.17464E+02  4.140E-01  2.308E+00  3.687E-04  0.000E+00  3.370E-04
   1    4   78     1    78    2.7365E-01  3.3684E-04   2.7332E-01  0.000E+00  0.000E+00  0.000E+00  1.17164E+02  4.138E-01  2.308E+00  3.686E-04  0.000E+00  3.368E-04
   1    4   79     1    79    2.7332E-01  3.3671E-04   2.7298E-01  0.000E+00  0.000E+00  0.000E+00  1.16864E+02  4.136E-01  2.307E+00  3.686E-04  0.000E+00  3.367E-04
   1    4   80     1    80    2.7298E-01  3.3657E-04   2.7264E-01  0.000E+00  0.000E+00  0.000E+00  1.16563E+02  4.134E-01  2.307E+00  3.685E-04  0.000E+00  3.366E-04
   1    4   81     1    81    2.7264E-01  3.3643E-04   2.7231E-01  0.000E+00  0.000E+00  0.000E+00  1.16263E+02  4.132E-01  2.307E+00  3.684E-04  0.000E+00  3.364E-04
   1    4   82     1    82    2.7231E-01  3.3630E-04   2.7197E-01  0.000E+00  0.000E+00  0.000E+00  1.15963E+02  4.129E-01  2.307E+00  3.684E-04  0.000E+00  3.363E-04
   1    4   83     1    83    2.7197E-01  3.3616E-04   2.7163E-01  0.000E+00  0.000E+00  0.000E+00  1.15663E+02  4.127E-01  2.306E+00  3.683E-04  0.000E+00  3.362E-04
   1    4   84     1    84    2.7163E-01  3.3603E-04   2.7130E-01  0.000E+00  0.000E+00  0.000E+00  1.15363E+02  4.125E-01  2.306E+00  3.682E-04  0.000E+00  3.360E-04
   1    4   85     1    85    2.7130E-01  3.3589E-04   2.7096E-01  0.000E+00  0.000E+00  0.000E+00  1.15062E+02  4.123E-01  2.306E+00  3.682E-04  0.000E+00  3.359E-04
   1    4   86     1    86    2.7096E-01  3.3575E-04   2.7063E-01  0.000E+00  0.000E+00  0.000E+00  1.14762E+02  4.121E-01  2.306E+00  3.681E-04  0.000E+00  3.358E-04
   1    4   87     1    87    2.7063E-01  3.3562E-04   2.7029E-01  0.000E+00  0.000E+00  0.000E+00  1.14462E+02  4.119E-01  2.305E+00  3.680E-04  0.000E+00  3.356E-04
   1    4   88     1    88    2.7029E-01  3.3548E-04   2.6996E-01  0.000E+00  0.000E+00  0.000E+00  1.14162E+02  4.117E-01  2.305E+00  3.680E-04  0.000E+00  3.355E-04
   1    4   89     1    89    2.6996E-01  3.3535E-04   2.6962E-01  0.000E+00  0.000E+00  0.000E+00  1.13862E+02  4.115E-01  2.305E+00  3.679E-04  0.000E+00  3.353E-04
   1    4   90     1    90    2.6962E-01  3.3521E-04   2.6928E-01  0.000E+00  0.000E+00  0.000E+00  1.13561E+02  4.113E-01  2.305E+00  3.678E-04  0.000E+00  3.352E-04
   1    4   91     1    91    2.6928E-01  3.3507E-04   2.6895E-01  0.000E+00  0.000E+00  0.000E+00  1.13261E+02  4.111E-01  2.304E+00  3.678E-04  0.000E+00  3.351E-04
   1    4   92     1    92    2.6895E-01  3.3494E-04   2.6861E-01  0.000E+00  0.000E+00  0.000E+00  1.12961E+02  4.109E-01  2.304E+00  3.677E-04  0.000E+00  3.349E-04
   1    4   93     1    93    2.6861E-01  3.3480E-04   2.6828E-01  0.000E+00  0.000E+00  0.000E+00  1.12661E+02  4.107E-01  2.304E+00  3.676E-04  0.000E+00  3.348E-04
   1    4   94     1    94    2.6828E-01  3.3467E-04   2.6795E-01  0.000E+00  0.000E+00  0.000E+00  1.12360E+02  4.105E-01  2.304E+00  3.676E-04  0.000E+00  3.347E-04
   1    4   95     1    95    2.6795E-01  3.3453E-04   2.6761E-01  0.000E+00  0.000E+00  0.000E+00  1.12060E+02  4.103E-01  2.303E+00  3.675E-04  0.000E+00  3.345E-04
   1    4   96     1    96    2.6761E-01  3.3440E-04   2.6728E-01  0.000E+00  0.000E+00  0.000E+00  1.11760E+02  4.101E-01  2.303E+00  3.674E-04  0.000E+00  3.344E-04
   1    4   97     1    97    2.6728E-01  3.3426E-04   2.6694E-01  0.000E+00  0.000E+00  0.000E+00  1.11460E+02  4.099E-01  2.303E+00  3.674E-04  0.000E+00  3.343E-04
   1    4   98     1    98    2.6694E-01  3.3412E-04   2.6661E-01  0.000E+00  0.000E+00  0.000E+00  1.11160E+02  4.097E-01  2.303E+00  3.673E-04  0.000E+00  3.341E-04
   1    4   99     1    99    2.6661E-01  3.3399E-04   2.6627E-01  0.000E+00  0.000E+00  0.000E+00  1.10859E+02  4.095E-01  2.302E+00  3.672E-04  0.000E+00  3.340E-04
   1    4  100     1   100    2.6627E-01  3.3385E-04   2.6594E-01  0.000E+00  0.000E+00  0.000E+00  1.10559E+02  4.093E-01  2.302E+00  3.672E-04  0.000E+00  3.339E-04



1
  VOLUMETRIC BUDGET FOR UNSATURATED ZONE BENEATH STREAMS AT END OF TIME STEP    30 STRESS PERIOD   1
  ------------------------------------------------------------------------------------------------

    CUMULATIVE VOLUMES             L**3    RATES FOR THIS TIME STEP         L**3/T
    ------------------                     ------------------------


          STREAM LOSS =        88283.1328            STREAM LOSS =        3.4060E-02
    CHANGE IN STORAGE =        88283.1328      CHANGE IN STORAGE =        3.4060E-02
       RECHARGE TO GW =            0.0000         RECHARGE TO GW =            0.0000

             TOTAL IN =        88283.1328               TOTAL IN =        3.4060E-02

            TOTAL OUT =        88283.1328              TOTAL OUT =        3.4060E-02

             IN - OUT =            0.0000               IN - OUT =            0.0000

  PERCENT DISCREPANCY =            0.00      PERCENT DISCREPANCY =             0.00



1
              HEAD IN LAYER   1 AT END OF TIME STEP  30 IN STRESS PERIOD    1
  ---------------------------------------------------------------------------

          1      2      3      4      5      6      7      8      9     10
         11     12     13     14     15     16     17     18     19     20
         21     22     23     24     25     26     27     28     29     30
         31     32     33     34     35     36     37     38     39     40
         41     42     43     44     45     46     47     48     49     50
         51     52     53     54     55     56     57     58     59     60
         61     62     63     64     65     66     67     68     69     70
         71     72     73     74     75     76     77     78     79     80
         81     82     83     84     85     86     87     88     89     90
         91     92     93     94     95     96     97     98     99    100
 .........................................................................
   1   104.0  104.0  104.0  104.0  104.0  104.0  104.0  104.0  104.0  104.0
       104.0  104.0  104.0  104.0  104.0  104.0  104.0  104.0  104.0  104.0
       104.0  104.0  104.0  104.0  104.0  104.0  104.0  104.0  104.0  103.9
       103.9  103.9  103.8  103.7  103.6  103.4  103.2  102.9  102.6  102.1
       101.4  100.6   99.5   98.2   96.5   94.5   91.9   88.6   84.6   80.4
        81.5   82.6   83.0   82.9   83.4   86.0   89.2   92.1   94.5   96.6
        98.2   99.5  100.6  101.4  102.1  102.6  102.9  103.2  103.4  103.6
       103.7  103.8  103.8  103.8  103.8  103.8  103.7  103.7  103.6  103.5
       103.3  103.1  102.9  102.6  102.2  101.8  101.2  100.5   99.7   98.7
        97.5   96.1   94.4   92.5   90.3   87.8   85.0   81.9   78.6   75.0
   2   104.0  104.0  104.0  104.0  104.0  104.0  104.0  104.0  104.0  104.0
       104.0  104.0  104.0  104.0  104.0  104.0  104.0  104.0  104.0  104.0
       104.0  104.0  104.0  104.0  104.0  104.0  104.0  104.0  104.0  103.9
       103.9  103.9  103.8  103.7  103.6  103.4  103.2  102.9  102.6  102.1
       101.4  100.6   99.5   98.2   96.5   94.5   91.9   88.6   84.4   79.1
        81.4   82.6   82.9   82.7   82.7   85.8   89.1   92.0   94.5   96.6
        98.2   99.5  100.6  101.4  102.1  102.6  102.9  103.2  103.4  103.6
       103.7  103.8  103.8  103.8  103.8  103.8  103.7  103.7  103.6  103.5
       103.3  103.1  102.9  102.6  102.2  101.8  101.2  100.5   99.7   98.7
        97.5   96.1   94.4   92.5   90.3   87.8   85.0   81.9   78.6   75.0
   3   104.0  104.0  104.0  104.0  104.0  104.0  104.0  104.0  104.0  104.0
       104.0  104.0  104.0  104.0  104.0  104.0  104.0  104.0  104.0  104.0
       104.0  104.0  104.0  104.0  104.0  104.0  104.0  104.0  104.0  103.9
       103.9  103.9  103.8  103.7  103.6  103.4  103.2  102.9  102.6  102.1
       101.4  100.6   99.5   98.2   96.5   94.5   91.9   88.7   84.3   76.0
        81.3   82.6   82.8   82.2   81.4   85.3   88.9   92.0   94.5   96.6
        98.2   99.5  100.6  101.4  102.1  102.6  102.9  103.2  103.4  103.6
       103.7  103.8  103.8  103.8  103.8  103.8  103.7  103.7  103.6  103.5
       103.3  103.1  102.9  102.6  102.2  101.8  101.2  100.5   99.7   98.7
        97.5   96.1   94.4   92.5   90.3   87.8   85.0   81.9   78.6   75.0
   4   104.0  104.0  104.0  104.0  104.0  104.0  104.0  104.0  104.0  104.0
       104.0  104.0  104.0  104.0  104.0  104.0  104.0  104.0  104.0  104.0
       104.0  104.0  104.0  104.0  104.0  104.0  104.0  104.0  104.0  103.9
       103.9  103.9  103.8  103.7  103.6  103.4  103.2  102.9  102.6  102.1
       101.4  100.6   99.5   98.2   96.5   94.5   91.9   88.8   84.8   79.2
        81.7   82.7   82.7   81.7   79.2   84.8   88.8   91.9   94.5   96.5
        98.2   99.5  100.6  101.4  102.1  102.6  102.9  103.2  103.4  103.6
       103.7  103.8  103.8  103.8  103.8  103.8  103.7  103.7  103.6  103.5
       103.3  103.1  102.9  102.6  102.2  101.8  101.2  100.5   99.7   98.7
        97.5   96.1   94.4   92.5   90.3   87.8   85.0   81.9   78.6   75.0
   5   104.0  104.0  104.0  104.0  104.0  104.0  104.0  104.0  104.0  104.0
       104.0  104.0  104.0  104.0  104.0  104.0  104.0  104.0  104.0  104.0
       104.0  104.0  104.0  104.0  104.0  104.0  104.0  104.0  104.0  103.9
       103.9  103.9  103.8  103.7  103.6  103.4  103.2  102.9  102.6  102.1
       101.4  100.6   99.5   98.2   96.6   94.5   92.0   88.9   85.3   81.4
        82.2   82.8   82.6   81.3   76.0   84.3   88.7   91.9   94.5   96.5
        98.2   99.5  100.6  101.4  102.1  102.6  102.9  103.2  103.4  103.6
       103.7  103.8  103.8  103.8  103.8  103.8  103.7  103.7  103.6  103.5
       103.3  103.1  102.9  102.6  102.2  101.8  101.2  100.5   99.7   98.7
        97.5   96.1   94.4   92.5   90.3   87.8   85.0   81.9   78.6   75.0
   6   104.0  104.0  104.0  104.0  104.0  104.0  104.0  104.0  104.0  104.0
       104.0  104.0  104.0  104.0  104.0  104.0  104.0  104.0  104.0  104.0
       104.0  104.0  104.0  104.0  104.0  104.0  104.0  104.0  104.0  103.9
       103.9  103.9  103.8  103.7  103.6  103.4  103.2  102.9  102.6  102.1
       101.4  100.6   99.5   98.2   96.6   94.5   92.0   89.1   85.8   82.7
        82.7   82.9   82.6   81.4   79.1   84.4   88.6   91.9   94.5   96.5
        98.2   99.5  100.6  101.4  102.1  102.6  102.9  103.2  103.4  103.6
       103.7  103.8  103.8  103.8  103.8  103.8  103.7  103.7  103.6  103.5
       103.3  103.1  102.9  102.6  102.2  101.8  101.2  100.5   99.7   98.7
        97.5   96.1   94.4   92.5   90.3   87.8   85.0   81.9   78.6   75.0
   7   104.0  104.0  104.0  104.0  104.0  104.0  104.0  104.0  104.0  104.0
       104.0  104.0  104.0  104.0  104.0  104.0  104.0  104.0  104.0  104.0
       104.0  104.0  104.0  104.0  104.0  104.0  104.0  104.0  104.0  103.9
       103.9  103.9  103.8  103.7  103.6  103.4  103.2  102.9  102.6  102.1
       101.4  100.6   99.5   98.2   96.6   94.5   92.1   89.2   86.0   83.4
        82.9   83.0   82.6   81.5   80.4   84.6   88.6   91.9   94.5   96.5
        98.2   99.5  100.6  101.4  102.1  102.6  102.9  103.2  103.4  103.6
       103.7  103.8  103.8  103.8  103.8  103.8  103.7  103.7  103.6  103.5
       103.3  103.1  102.9  102.6  102.2  101.8  101.2  100.5   99.7   98.7
        97.5   96.1   94.4   92.5   90.3   87.8   85.0   81.9   78.6   75.0

 HEAD WILL BE SAVED ON UNIT   51 AT END OF TIME STEP   30, STRESS PERIOD    1
1
  VOLUMETRIC BUDGET FOR ENTIRE MODEL AT END OF TIME STEP   30, STRESS PERIOD   1
  ------------------------------------------------------------------------------

     CUMULATIVE VOLUMES      L**3       RATES FOR THIS TIME STEP      L**3/T
     ------------------                 ------------------------

           IN:                                      IN:
           ---                                      ---
             STORAGE     =    10978528.0000               STORAGE     =           3.5138
       CONSTANT HEAD     =           0.0000         CONSTANT HEAD     =           0.0000
               WELLS     =           0.0000                 WELLS     =           0.0000
     HEAD DEP BOUNDS     =           0.0000       HEAD DEP BOUNDS     =           0.0000
      STREAM LEAKAGE     =           0.0000        STREAM LEAKAGE     =           0.0000

                TOTAL IN =    10978528.0000                  TOTAL IN =           3.5138

          OUT:                                     OUT:
          ----                                     ----
             STORAGE     =       9.6035E-08               STORAGE     =           0.0000
       CONSTANT HEAD     =           0.0000         CONSTANT HEAD     =           0.0000
               WELLS     =     7361280.5000                 WELLS     =           2.8400
     HEAD DEP BOUNDS     =     3617246.7500       HEAD DEP BOUNDS     =           0.6738
      STREAM LEAKAGE     =           0.0000        STREAM LEAKAGE     =           0.0000

               TOTAL OUT =    10978527.0000                 TOTAL OUT =           3.5138

                IN - OUT =           1.0000                  IN - OUT =           0.0000

     PERCENT DISCREPANCY =           0.00         PERCENT DISCREPANCY =           0.00






         TIME SUMMARY AT END OF TIME STEP   30 IN STRESS PERIOD    1
                    SECONDS     MINUTES      HOURS       DAYS        YEARS
                    -----------------------------------------------------------
   TIME STEP LENGTH 2.49961E+05  4166.0      69.434      2.8931     7.92080E-03
 STRESS PERIOD TIME 2.59200E+06  43200.      720.00      30.000     8.21355E-02
         TOTAL TIME 2.59200E+06  43200.      720.00      30.000     8.21355E-02
1
1
                            STRESS PERIOD NO.    2, LENGTH =   2592000.    
                            -----------------------------------------------

                              NUMBER OF TIME STEPS =    30

                               MULTIPLIER FOR DELT =     1.100

                            INITIAL TIME STEP SIZE =   15757.40    

 REUSING NON-PARAMETER WELLS FROM LAST STRESS PERIOD

      1 WELL 

 REUSING NON-PARAMETER GHB CELLS FROM LAST STRESS PERIOD

      7 GHB CELLS



 CLASSIFICATION & COUNT OF STREAM SEGMENTS BASED ON SOURCE OF INFLOW:

                HEADWATER     DIVERSION     RECEIVES TRIBUTARY FLOW
                ---------     ---------     -----------------------
                     1              0               0



                    INPUT DATA FOR EACH STREAM SEGMENT
 ---------------------------------------------------------------------------------------------

 SEGMENT    SEG.     INFLOW   OVERLAND   STREAM    STREAM   ICALC  OUTFLOW  DIVERSION PRIORITY
    NO.    LENGTH     RATE     RUNOFF      ET       PPT.    METH.  TO SEG.  FROM SEG.    NO.

      1  2.000E+04 2.533E+00 0.000E+00 0.000E+00 0.000E+00    2        0        0        0


         STREAMBED PROPERTIES AND STREAM DIMENSIONS

 SEGMENT     BED HYD. COND.      BED THICKNESS     ELEV.-TOP OF BED     WIDTH OF STREAM     DEPTH OF STREAM    STREAM ROUGHNESS
    No.     UPPER     LOWER     UPPER     LOWER     UPPER     LOWER     UPPER     LOWER     UPPER     LOWER   CHANNEL      BANK

     1  3.500E-07 3.500E-07                                                                                 3.000E-02 4.000E-02

  EIGHT POINT CROSS-SECTION DATA FOR SEGMENTS WITH ICALC = 2
    X VALUES X VALUES START FROM LEFT SIDE LOOKING DOWNSTREAM

     SEGMENT NO.        X1        X2        X3        X4        X5        X6        X7        X8
            1      0.000E+00 2.000E+00 4.000E+00 6.000E+00 8.000E+00 1.000E+01 1.200E+01 1.400E+01

    Z VALUES ARE RELATIVE TO STREAMBED ELEVATION

     SEGMENT NO.          Z1        Z2        Z3        Z4        Z5        Z6        Z7        Z8
            1      6.000E+00 4.500E+00 3.500E+00 0.000E+00 3.000E-01 3.500E+00 4.500E+00 6.000E+00



 
 SOLVING FOR HEAD 
                                                   Max.-Head-Change                         Max.-Flux-Residual
  Residual-Control   Outer-Iter.   Inner-Iter.     Column Row Layer    Maximum-Head-Change  Column Row Layer    Maximum-Flux-Residual          L2-NORM 
          0                 1           2            55    5     1      -0.1842336981E+00      55    5    1        -0.5436630768E-01      0.2312617087E+00
          0                 2           2            55    5     1       0.1820842946E-01      55    5    1         0.5404460765E-02      0.2311663264E-01
          0                 3           2            55    5     1      -0.1624342061E-02      55    5    1        -0.4867145366E-03      0.2080589572E-02
          0                 4           2            55    5     1       0.1289254351E-03      55    5    1         0.3898335226E-04      0.1666545313E-03
          0                 5           1            55    5     1      -0.8981191037E-05      55    5    1        -0.2740507519E-05      0.1171565646E-04
          0                 6           1            55    5     1       0.5392947920E-06      55    5    1         0.1660638542E-06      0.7099200136E-06

    ------------------------------------------------
       NWT REQUIRED            6 OUTER ITERATIONS 
       AND A TOTAL OF         10 INNER ITERATIONS.
    ------------------------------------------------

 NO OUTPUT CONTROL FOR STRESS PERIOD    2   TIME STEP    1
 
 SOLVING FOR HEAD 
                                                   Max.-Head-Change                         Max.-Flux-Residual
  Residual-Control   Outer-Iter.   Inner-Iter.     Column Row Layer    Maximum-Head-Change  Column Row Layer    Maximum-Flux-Residual          L2-NORM 
          0                 1           2            55    5     1      -0.1685384787E+00      55    5    1        -0.3827488902E-01      0.2275144573E+00
          0                 2           2            55    5     1       0.1667128253E-01      55    5    1         0.3810774767E-02      0.2274886300E-01
          0                 3           2            55    5     1      -0.1487076907E-02      55    5    1        -0.3431322639E-03      0.2047422959E-02
          0                 4           2            55    5     1       0.1180316989E-03      55    5    1         0.2748360751E-04      0.1639984213E-03
          0                 5           1            55    5     1      -0.8222304940E-05      55    5    1        -0.1932079082E-05      0.1152893111E-04
          0                 6           1            55    5     1       0.4937252317E-06      55    5    1         0.1170763149E-06      0.6986041115E-06

    ------------------------------------------------
       NWT REQUIRED            6 OUTER ITERATIONS 
       AND A TOTAL OF         10 INNER ITERATIONS.
    ------------------------------------------------

 NO OUTPUT CONTROL FOR STRESS PERIOD    2   TIME STEP    2
 
 SOLVING FOR HEAD 
                                                   Max.-Head-Change                         Max.-Flux-Residual
  Residual-Control   Outer-Iter.   Inner-Iter.     Column Row Layer    Maximum-Head-Change  Column Row Layer    Maximum-Flux-Residual          L2-NORM 
          0                 1           2            55    5     1      -0.1684394233E+00      55    5    1        -0.3182254265E-01      0.2264500482E+00
          0                 2           2            55    5     1       0.1666885216E-01      55    5    1         0.3171357432E-02      0.2264373587E-01
          0                 3           2            55    5     1      -0.1486787423E-02      55    5    1        -0.2855280910E-03      0.2037948811E-02
          0                 4           2            55    5     1       0.1180093070E-03      55    5    1         0.2286996275E-04      0.1632396431E-03
          0                 5           1            55    5     1      -0.8220740801E-05      55    5    1        -0.1607741497E-05      0.1147558912E-04
          0                 6           1            55    5     1       0.4936307649E-06      55    5    1         0.9742275964E-07      0.6953699519E-06

    ------------------------------------------------
       NWT REQUIRED            6 OUTER ITERATIONS 
       AND A TOTAL OF         10 INNER ITERATIONS.
    ------------------------------------------------

 NO OUTPUT CONTROL FOR STRESS PERIOD    2   TIME STEP    3
 
 SOLVING FOR HEAD 
                                                   Max.-Head-Change                         Max.-Flux-Residual
  Residual-Control   Outer-Iter.   Inner-Iter.     Column Row Layer    Maximum-Head-Change  Column Row Layer    Maximum-Flux-Residual          L2-NORM 
          0                 1           2            55    5     1      -0.1757354272E+00      55    5    1        -0.2890611945E-01      0.2258367574E+00
          0                 2           2            55    5     1       0.1739414400E-01      55    5    1         0.2881643736E-02      0.2258269144E-01
          0                 3           2            55    5     1      -0.1551447841E-02      55    5    1        -0.2594350379E-03      0.2032452062E-02
          0                 4           2            55    5     1       0.1231417949E-03      55    5    1         0.2078005845E-04      0.1627993753E-03
          0                 5           1            55    5     1      -0.8578276807E-05      55    5    1        -0.1460822308E-05      0.1144463858E-04
          0                 6           1            55    5     1       0.5150990060E-06      55    5    1         0.8852003752E-07      0.6934916689E-06

    ------------------------------------------------
       NWT REQUIRED            6 OUTER ITERATIONS 
       AND A TOTAL OF         10 INNER ITERATIONS.
    ------------------------------------------------

 NO OUTPUT CONTROL FOR STRESS PERIOD    2   TIME STEP    4
 
 SOLVING FOR HEAD 
                                                   Max.-Head-Change                         Max.-Flux-Residual
  Residual-Control   Outer-Iter.   Inner-Iter.     Column Row Layer    Maximum-Head-Change  Column Row Layer    Maximum-Flux-Residual          L2-NORM 
          0                 1           2            55    5     1      -0.1873357892E+00      55    5    1        -0.2743837417E-01      0.2253114881E+00
          0                 2           2            55    5     1       0.1854323992E-01      55    5    1         0.2735095754E-02      0.2253018443E-01
          0                 3           2            55    5     1      -0.1653930878E-02      55    5    1        -0.2462434065E-03      0.2027726242E-02
          0                 4           2            55    5     1       0.1312761696E-03      55    5    1         0.1972342682E-04      0.1624208385E-03
          0                 5           1            55    5     1      -0.9144930487E-05      55    5    1        -0.1386542015E-05      0.1141802779E-04
          0                 6           1            55    5     1       0.5491238531E-06      55    5    1         0.8401894291E-07      0.6918749837E-06

    ------------------------------------------------
       NWT REQUIRED            6 OUTER ITERATIONS 
       AND A TOTAL OF         10 INNER ITERATIONS.
    ------------------------------------------------

 NO OUTPUT CONTROL FOR STRESS PERIOD    2   TIME STEP    5
 
 SOLVING FOR HEAD 
                                                   Max.-Head-Change                         Max.-Flux-Residual
  Residual-Control   Outer-Iter.   Inner-Iter.     Column Row Layer    Maximum-Head-Change  Column Row Layer    Maximum-Flux-Residual          L2-NORM 
          0                 1           2            55    5     1      -0.2018179822E+00      55    5    1        -0.2657529688E-01      0.2247811304E+00
          0                 2           2            55    5     1       0.1997624180E-01      55    5    1         0.2648201158E-02      0.2247707551E-01
          0                 3           2            55    5     1      -0.1781749583E-02      55    5    1        -0.2384284357E-03      0.2022947149E-02
          0                 4           2            55    5     1       0.1414213863E-03      55    5    1         0.1909740320E-04      0.1620380274E-03
          0                 5           1            55    5     1      -0.9851663205E-05      55    5    1        -0.1342533430E-05      0.1139111657E-04
          0                 6           1            55    5     1       0.5915595640E-06      55    5    1         0.8135219076E-07      0.6902381383E-06

    ------------------------------------------------
       NWT REQUIRED            6 OUTER ITERATIONS 
       AND A TOTAL OF         10 INNER ITERATIONS.
    ------------------------------------------------

 NO OUTPUT CONTROL FOR STRESS PERIOD    2   TIME STEP    6
 
 SOLVING FOR HEAD 
                                                   Max.-Head-Change                         Max.-Flux-Residual
  Residual-Control   Outer-Iter.   Inner-Iter.     Column Row Layer    Maximum-Head-Change  Column Row Layer    Maximum-Flux-Residual          L2-NORM 
          0                 1           2            55    5     1      -0.2187416680E+00      55    5    1        -0.2603000934E-01      0.2242265985E+00
          0                 2           2            55    5     1       0.2164972751E-01      55    5    1         0.2592503821E-02      0.2242149297E-01
          0                 3           2            55    5     1      -0.1931029324E-02      55    5    1        -0.2334267973E-03      0.2017945970E-02
          0                 4           2            55    5     1       0.1532699204E-03      55    5    1         0.1869668310E-04      0.1616374229E-03
          0                 5           1            55    5     1      -0.1067705217E-04      55    5    1        -0.1314363772E-05      0.1136295453E-04
          0                 6           1            55    5     1       0.6411196871E-06      55    5    1         0.7964522375E-07      0.6885226957E-06

    ------------------------------------------------
       NWT REQUIRED            6 OUTER ITERATIONS 
       AND A TOTAL OF         10 INNER ITERATIONS.
    ------------------------------------------------

 NO OUTPUT CONTROL FOR STRESS PERIOD    2   TIME STEP    7
 
 SOLVING FOR HEAD 
                                                   Max.-Head-Change                         Max.-Flux-Residual
  Residual-Control   Outer-Iter.   Inner-Iter.     Column Row Layer    Maximum-Head-Change  Column Row Layer    Maximum-Flux-Residual          L2-NORM 
          0                 1           2            55    5     1      -0.2378933233E+00      55    5    1        -0.2564699211E-01      0.2236366592E+00
          0                 2           2            55    5     1       0.2354258426E-01      55    5    1         0.2552560177E-02      0.2236232597E-01
          0                 3           2            55    5     1      -0.2099886686E-02      55    5    1        -0.2298474878E-03      0.2012622608E-02
          0                 4           2            55    5     1       0.1666722833E-03      55    5    1         0.1840985567E-04      0.1612110082E-03
          0                 5           1            55    5     1      -0.1161068333E-04      55    5    1        -0.1294200866E-05      0.1133297807E-04
          0                 6           1            55    5     1       0.6971784861E-06      50    3    1         0.7842362848E-07      0.6866933520E-06

    ------------------------------------------------
       NWT REQUIRED            6 OUTER ITERATIONS 
       AND A TOTAL OF         10 INNER ITERATIONS.
    ------------------------------------------------

 NO OUTPUT CONTROL FOR STRESS PERIOD    2   TIME STEP    8
 
 SOLVING FOR HEAD 
                                                   Max.-Head-Change                         Max.-Flux-Residual
  Residual-Control   Outer-Iter.   Inner-Iter.     Column Row Layer    Maximum-Head-Change  Column Row Layer    Maximum-Flux-Residual          L2-NORM 
          0                 1           2            55    5     1      -0.2592680062E+00      55    5    1        -0.2536148759E-01      0.2230069162E+00
          0                 2           2            55    5     1       0.2565414385E-01      55    5    1         0.2521881865E-02      0.2229913410E-01
          0                 3           2            55    5     1      -0.2288263725E-02      55    5    1        -0.2271066345E-03      0.2006937431E-02
          0                 4           2            55    5     1       0.1816238625E-03      55    5    1         0.1819015205E-04      0.1607556085E-03
          0                 5           1            55    5     1      -0.1265223515E-04      55    5    1        -0.1278756919E-05      0.1130096401E-04
          0                 6           1            55    5     1       0.7597164999E-06      50    3    1         0.7748987230E-07      0.6847349979E-06

    ------------------------------------------------
       NWT REQUIRED            6 OUTER ITERATIONS 
       AND A TOTAL OF         10 INNER ITERATIONS.
    ------------------------------------------------

 NO OUTPUT CONTROL FOR STRESS PERIOD    2   TIME STEP    9
 
 SOLVING FOR HEAD 
                                                   Max.-Head-Change                         Max.-Flux-Residual
  Residual-Control   Outer-Iter.   Inner-Iter.     Column Row Layer    Maximum-Head-Change  Column Row Layer    Maximum-Flux-Residual          L2-NORM 
          0                 1           2            55    5     1      -0.2828961578E+00      55    5    1        -0.2512464785E-01      0.2223311759E+00
          0                 2           2            55    5     1       0.2798720477E-01      55    5    1         0.2495565699E-02      0.2223129632E-01
          0                 3           2            55    5     1      -0.2496412018E-02      55    5    1        -0.2247630767E-03      0.2000834555E-02
          0                 4           2            55    5     1       0.1981446100E-03      55    5    1         0.1800223419E-04      0.1602667477E-03
          0                 5           1            55    5     1      -0.1380309744E-04      55    5    1        -0.1265547722E-05      0.1126659769E-04
          0                 6           1            55    5     1       0.8288168147E-06      50    3    1         0.7669274815E-07      0.6826264179E-06

    ------------------------------------------------
       NWT REQUIRED            6 OUTER ITERATIONS 
       AND A TOTAL OF         10 INNER ITERATIONS.
    ------------------------------------------------

 NO OUTPUT CONTROL FOR STRESS PERIOD    2   TIME STEP   10
 
 SOLVING FOR HEAD 
                                                   Max.-Head-Change                         Max.-Flux-Residual
  Residual-Control   Outer-Iter.   Inner-Iter.     Column Row Layer    Maximum-Head-Change  Column Row Layer    Maximum-Flux-Residual          L2-NORM 
          0                 1           2            55    5     1      -0.3089123288E+00      55    5    1        -0.2492163013E-01      0.2216062945E+00
          0                 2           2            55    5     1       0.3055468853E-01      55    5    1         0.2472034249E-02      0.2215849068E-01
          0                 3           2            55    5     1      -0.2725487766E-02      55    5    1        -0.2226756733E-03      0.1994285073E-02
          0                 4           2            55    5     1       0.2163262663E-03      55    5    1         0.1783479004E-04      0.1597421095E-03
          0                 5           1            55    5     1      -0.1506966086E-04      55    5    1        -0.1253778102E-05      0.1122971625E-04
          0                 6           1            50    3     1       0.9048678273E-06      50    3    1         0.7598458929E-07      0.6803548986E-06

    ------------------------------------------------
       NWT REQUIRED            6 OUTER ITERATIONS 
       AND A TOTAL OF         10 INNER ITERATIONS.
    ------------------------------------------------

 NO OUTPUT CONTROL FOR STRESS PERIOD    2   TIME STEP   11
 
 SOLVING FOR HEAD 
                                                   Max.-Head-Change                         Max.-Flux-Residual
  Residual-Control   Outer-Iter.   Inner-Iter.     Column Row Layer    Maximum-Head-Change  Column Row Layer    Maximum-Flux-Residual          L2-NORM 
          0                 1           2            55    5     1      -0.3374663569E+00      55    5    1        -0.2473851725E-01      0.2208285744E+00
          0                 2           2            55    5     1       0.3337094484E-01      55    5    1         0.2449793029E-02      0.2208033976E-01
          0                 3           2            55    5     1      -0.2976775312E-02      55    5    1        -0.2207108166E-03      0.1987255079E-02
          0                 4           2            55    5     1       0.2362707363E-03      55    5    1         0.1767711039E-04      0.1591789773E-03
          0                 5           1            55    5     1      -0.1645902421E-04      55    5    1        -0.1242695221E-05      0.1119012872E-04
          0                 6           1            50    3     1       0.9882984246E-06      50    3    1         0.7532049118E-07      0.6779050640E-06

    ------------------------------------------------
       NWT REQUIRED            6 OUTER ITERATIONS 
       AND A TOTAL OF         10 INNER ITERATIONS.
    ------------------------------------------------

 NO OUTPUT CONTROL FOR STRESS PERIOD    2   TIME STEP   12
 
 SOLVING FOR HEAD 
                                                   Max.-Head-Change                         Max.-Flux-Residual
  Residual-Control   Outer-Iter.   Inner-Iter.     Column Row Layer    Maximum-Head-Change  Column Row Layer    Maximum-Flux-Residual          L2-NORM 
          0                 1           2            55    5     1      -0.3687511288E+00      55    5    1        -0.2457072984E-01      0.2199954436E+00
          0                 2           2            55    5     1       0.3645441139E-01      55    5    1         0.2428235860E-02      0.2199657557E-01
          0                 3           2            55    5     1      -0.3251925194E-02      55    5    1        -0.2188152479E-03      0.1979720540E-02
          0                 4           2            55    5     1       0.2581089773E-03      55    5    1         0.1752491876E-04      0.1585754251E-03
          0                 5           1            55    5     1      -0.1798031066E-04      55    5    1        -0.1231998553E-05      0.1114769968E-04
          0                 6           1            50    3     1       0.1079654826E-05      50    3    1         0.7468327290E-07      0.6752638283E-06
          0                 7           1            50    3     1      -0.5455483746E-07      50    3    1        -0.3809992322E-08      0.3441725871E-07

    ------------------------------------------------
       NWT REQUIRED            7 OUTER ITERATIONS 
       AND A TOTAL OF         11 INNER ITERATIONS.
    ------------------------------------------------

 NO OUTPUT CONTROL FOR STRESS PERIOD    2   TIME STEP   13
 
 SOLVING FOR HEAD 
                                                   Max.-Head-Change                         Max.-Flux-Residual
  Residual-Control   Outer-Iter.   Inner-Iter.     Column Row Layer    Maximum-Head-Change  Column Row Layer    Maximum-Flux-Residual          L2-NORM 
          0                 1           2            55    5     1      -0.4029451742E+00      55    5    1        -0.2440643284E-01      0.2191028618E+00
          0                 2           2            55    5     1       0.3982202282E-01      55    5    1         0.2406036356E-02      0.2190678527E-01
          0                 3           2            55    5     1      -0.3552454532E-02      55    5    1        -0.2168707960E-03      0.1971644361E-02
          0                 4           2            55    5     1       0.2819613516E-03      55    5    1         0.1736873995E-04      0.1579284801E-03
          0                 5           1            55    5     1      -0.1964190589E-04      55    5    1        -0.1221022030E-05      0.1110222008E-04
          0                 6           1            50    3     1       0.1179443360E-05      50    3    1         0.7403390612E-07      0.6724121709E-06
          0                 7           1            50    3     1      -0.5959821063E-07      50    3    1        -0.3777836710E-08      0.3426616259E-07

    ------------------------------------------------
       NWT REQUIRED            7 OUTER ITERATIONS 
       AND A TOTAL OF         11 INNER ITERATIONS.
    ------------------------------------------------

 NO OUTPUT CONTROL FOR STRESS PERIOD    2   TIME STEP   14
 
 SOLVING FOR HEAD 
                                                   Max.-Head-Change                         Max.-Flux-Residual
  Residual-Control   Outer-Iter.   Inner-Iter.     Column Row Layer    Maximum-Head-Change  Column Row Layer    Maximum-Flux-Residual          L2-NORM 
          0                 1           2            55    5     1      -0.4403070666E+00      55    5    1        -0.2425160018E-01      0.2181497604E+00
          0                 2           2            55    5     1       0.4349828103E-01      55    5    1         0.2383544738E-02      0.2181084491E-01
          0                 3           2            55    5     1      -0.3880558613E-02      55    5    1        -0.2149111125E-03      0.1963015508E-02
          0                 4           2            55    5     1       0.3080020214E-03      55    5    1         0.1721125220E-04      0.1572372563E-03
          0                 5           1            55    5     1      -0.2145594497E-04      55    5    1        -0.1209954052E-05      0.1105362756E-04
          0                 6           1            50    3     1       0.1288396864E-05      50    3    1         0.7338555896E-07      0.6693383021E-06
          0                 7           1            50    3     1      -0.6510549995E-07      50    3    1        -0.3746148280E-08      0.3410178815E-07

    ------------------------------------------------
       NWT REQUIRED            7 OUTER ITERATIONS 
       AND A TOTAL OF         11 INNER ITERATIONS.
    ------------------------------------------------

 NO OUTPUT CONTROL FOR STRESS PERIOD    2   TIME STEP   15
 
 SOLVING FOR HEAD 
                                                   Max.-Head-Change                         Max.-Flux-Residual
  Residual-Control   Outer-Iter.   Inner-Iter.     Column Row Layer    Maximum-Head-Change  Column Row Layer    Maximum-Flux-Residual          L2-NORM 
          0                 1           2            55    5     1      -0.4810092706E+00      55    5    1        -0.2408621924E-01      0.2171308119E+00
          0                 2           2            55    5     1       0.4749922219E-01      55    5    1         0.2358595991E-02      0.2170821622E-01
          0                 3           2            55    5     1      -0.4237676803E-02      55    5    1        -0.2127426155E-03      0.1953785529E-02
          0                 4           2            55    5     1       0.3363451537E-03      55    5    1         0.1703693925E-04      0.1564978701E-03
          0                 5           1            55    5     1      -0.2343038607E-04      55    5    1        -0.1197703897E-05      0.1100164890E-04
          0                 6           1            50    3     1       0.1407001324E-05      50    3    1         0.7267478352E-07      0.6660156162E-06
          0                 7           1            50    3     1      -0.7110170317E-07      50    3    1        -0.3711820185E-08      0.3392220092E-07

    ------------------------------------------------
       NWT REQUIRED            7 OUTER ITERATIONS 
       AND A TOTAL OF         11 INNER ITERATIONS.
    ------------------------------------------------

 NO OUTPUT CONTROL FOR STRESS PERIOD    2   TIME STEP   16
 
 SOLVING FOR HEAD 
                                                   Max.-Head-Change                         Max.-Flux-Residual
  Residual-Control   Outer-Iter.   Inner-Iter.     Column Row Layer    Maximum-Head-Change  Column Row Layer    Maximum-Flux-Residual          L2-NORM 
          0                 1           2            55    5     1      -0.5253964142E+00      55    5    1        -0.2392955584E-01      0.2160470476E+00
          0                 2           2            55    5     1       0.5185713864E-01      55    5    1         0.2332704773E-02      0.2159897415E-01
          0                 3           2            55    5     1      -0.4626705473E-02      55    5    1        -0.2105051154E-03      0.1943961330E-02
          0                 4           2            55    5     1       0.3672204994E-03      55    5    1         0.1685697175E-04      0.1557108689E-03
          0                 5           1            55    5     1      -0.2558124333E-04      55    5    1        -0.1185057039E-05      0.1094632229E-04
          0                 6           1            50    3     1       0.1536229546E-05      50    3    1         0.7195221663E-07      0.6624340862E-06
          0                 7           1            50    3     1      -0.7763663818E-07      50    3    1        -0.3677628868E-08      0.3372624761E-07

    ------------------------------------------------
       NWT REQUIRED            7 OUTER ITERATIONS 
       AND A TOTAL OF         11 INNER ITERATIONS.
    ------------------------------------------------

 NO OUTPUT CONTROL FOR STRESS PERIOD    2   TIME STEP   17
 
 SOLVING FOR HEAD 
                                                   Max.-Head-Change                         Max.-Flux-Residual
  Residual-Control   Outer-Iter.   Inner-Iter.     Column Row Layer    Maximum-Head-Change  Column Row Layer    Maximum-Flux-Residual          L2-NORM 
          0                 1           2            55    5     1      -0.5736378032E+00      55    5    1        -0.2375313747E-01      0.2148922565E+00
          0                 2           2            55    5     1       0.5658728143E-01      55    5    1         0.2302822736E-02      0.2148234639E-01
          0                 3           2            55    5     1      -0.5049017473E-02      55    5    1        -0.2079256467E-03      0.1933473245E-02
          0                 4           2            55    5     1       0.4007369030E-03      55    5    1         0.1664947365E-04      0.1548706657E-03
          0                 5           1            55    5     1      -0.2791611527E-04      55    5    1        -0.1170475691E-05      0.1088725437E-04
          0                 6           1            50    3     1       0.1676558973E-05      50    3    1         0.7112943656E-07      0.6585547276E-06
          0                 7           1            50    3     1      -0.8473580594E-07      50    3    1        -0.3639346602E-08      0.3351120177E-07

    ------------------------------------------------
       NWT REQUIRED            7 OUTER ITERATIONS 
       AND A TOTAL OF         11 INNER ITERATIONS.
    ------------------------------------------------

 NO OUTPUT CONTROL FOR STRESS PERIOD    2   TIME STEP   18
 
 SOLVING FOR HEAD 
                                                   Max.-Head-Change                         Max.-Flux-Residual
  Residual-Control   Outer-Iter.   Inner-Iter.     Column Row Layer    Maximum-Head-Change  Column Row Layer    Maximum-Flux-Residual          L2-NORM 
          0                 1           3            55    5     1      -0.6261664944E+00      55    5    1        -0.2358609950E-01      0.2136380830E+00
          0                 2           2            55    5     1       0.6172961989E-01      55    5    1         0.2271226042E-02      0.2135337005E-01
          0                 3           2            55    5     1      -0.5508202810E-02      55    5    1        -0.2052143053E-03      0.1921998209E-02
          0                 4           2            55    5     1       0.4371790657E-03      55    5    1         0.1643123117E-04      0.1539890130E-03
          0                 5           1            55    5     1      -0.3045475167E-04      55    5    1        -0.1155140151E-05      0.1082986792E-04
          0                 6           1            50    3     1       0.1829020704E-05      50    3    1         0.7026235771E-07      0.6550472209E-06
          0                 7           1            50    3     1      -0.9243987773E-07      50    3    1        -0.3598582765E-08      0.3333301730E-07

    ------------------------------------------------
       NWT REQUIRED            7 OUTER ITERATIONS 
       AND A TOTAL OF         12 INNER ITERATIONS.
    ------------------------------------------------

 NO OUTPUT CONTROL FOR STRESS PERIOD    2   TIME STEP   19
 
 SOLVING FOR HEAD 
                                                   Max.-Head-Change                         Max.-Flux-Residual
  Residual-Control   Outer-Iter.   Inner-Iter.     Column Row Layer    Maximum-Head-Change  Column Row Layer    Maximum-Flux-Residual          L2-NORM 
          0                 1           3            55    5     1      -0.6832132324E+00      55    5    1        -0.2340320174E-01      0.2122875741E+00
          0                 2           2            55    5     1       0.6730439435E-01      55    6    1         0.2245416172E-02      0.2121540776E-01
          0                 3           2            55    5     1      -0.6006087220E-02      55    5    1        -0.2021134810E-03      0.1909601413E-02
          0                 4           2            55    5     1       0.4766916657E-03      55    6    1         0.1618342077E-04      0.1530088472E-03
          0                 5           1            55    5     1      -0.3320735131E-04      55    6    1        -0.1137666089E-05      0.1076275508E-04
          0                 6           1            50    3     1       0.1994430559E-05      50    3    1         0.6929201390E-07      0.6506060196E-06
          0                 7           1            50    3     1      -0.1008037924E-06      52    3    1        -0.3568963791E-08      0.3308640657E-07

    ------------------------------------------------
       NWT REQUIRED            7 OUTER ITERATIONS 
       AND A TOTAL OF         12 INNER ITERATIONS.
    ------------------------------------------------

 NO OUTPUT CONTROL FOR STRESS PERIOD    2   TIME STEP   20
 
 SOLVING FOR HEAD 
                                                   Max.-Head-Change                         Max.-Flux-Residual
  Residual-Control   Outer-Iter.   Inner-Iter.     Column Row Layer    Maximum-Head-Change  Column Row Layer    Maximum-Flux-Residual          L2-NORM 
          0                 1           3            55    5     1      -0.7451779198E+00      55    5    1        -0.2321421619E-01      0.2108698649E+00
          0                 2           2            55    5     1       0.7334723719E-01      55    6    1         0.2227443905E-02      0.2106925177E-01
          0                 3           2            55    5     1      -0.6545880396E-02      55    6    1        -0.2004081185E-03      0.1896394985E-02
          0                 4           2            55    5     1       0.5195290748E-03      55    6    1         0.1605294610E-04      0.1519617404E-03
          0                 5           1            55    5     1      -0.3619165357E-04      55    6    1        -0.1128485437E-05      0.1069108028E-04
          0                 6           1            50    3     1       0.2173873421E-05      54    5    1         0.6871294289E-07      0.6457882336E-06
          0                 7           1            50    3     1      -0.1098835247E-06      52    3    1        -0.3559950557E-08      0.3281718691E-07

    ------------------------------------------------
       NWT REQUIRED            7 OUTER ITERATIONS 
       AND A TOTAL OF         12 INNER ITERATIONS.
    ------------------------------------------------

 NO OUTPUT CONTROL FOR STRESS PERIOD    2   TIME STEP   21
 
 SOLVING FOR HEAD 
                                                   Max.-Head-Change                         Max.-Flux-Residual
  Residual-Control   Outer-Iter.   Inner-Iter.     Column Row Layer    Maximum-Head-Change  Column Row Layer    Maximum-Flux-Residual          L2-NORM 
          0                 1           3            55    5     1      -0.8124692613E+00      55    5    1        -0.2302049779E-01      0.2093855999E+00
          0                 2           2            55    5     1       0.7989374740E-01      55    6    1         0.2209007819E-02      0.2091613502E-01
          0                 3           2            55    5     1      -0.7130794296E-02      55    6    1        -0.1987349172E-03      0.1882604683E-02
          0                 4           2            55    5     1       0.5659456717E-03      55    6    1         0.1591884975E-04      0.1508755819E-03
          0                 5           1            55    5     1      -0.3942527292E-04      55    6    1        -0.1119044811E-05      0.1061754550E-04
          0                 6           1            50    3     1       0.2368229109E-05      52    3    1         0.6827538712E-07      0.6407018699E-06
          0                 7           1            50    3     1      -0.1197072988E-06      52    3    1        -0.3554239569E-08      0.3252577630E-07

    ------------------------------------------------
       NWT REQUIRED            7 OUTER ITERATIONS 
       AND A TOTAL OF         12 INNER ITERATIONS.
    ------------------------------------------------

 NO OUTPUT CONTROL FOR STRESS PERIOD    2   TIME STEP   22
 
 SOLVING FOR HEAD 
                                                   Max.-Head-Change                         Max.-Flux-Residual
  Residual-Control   Outer-Iter.   Inner-Iter.     Column Row Layer    Maximum-Head-Change  Column Row Layer    Maximum-Flux-Residual          L2-NORM 
          0                 1           3            55    5     1      -0.8855271932E+00      55    5    1        -0.2282176575E-01      0.2078295447E+00
          0                 2           2            55    5     1       0.8698135966E-01      55    6    1         0.2190221479E-02      0.2075459760E-01
          0                 3           2            55    5     1      -0.7764211894E-02      55    6    1        -0.1970264802E-03      0.1868049542E-02
          0                 4           2            55    5     1       0.6162092088E-03      55    6    1         0.1578183241E-04      0.1497284147E-03
          0                 5           1            55    5     1      -0.4292704519E-04      50    2    1        -0.1109413990E-05      0.1053982737E-04
          0                 6           1            50    3     1       0.2578919986E-05      52    3    1         0.6790382123E-07      0.6352004382E-06
          0                 7           1            50    3     1      -0.1303694522E-06      52    3    1        -0.3556577255E-08      0.3220890750E-07

    ------------------------------------------------
       NWT REQUIRED            7 OUTER ITERATIONS 
       AND A TOTAL OF         12 INNER ITERATIONS.
    ------------------------------------------------

 NO OUTPUT CONTROL FOR STRESS PERIOD    2   TIME STEP   23
 
 SOLVING FOR HEAD 
                                                   Max.-Head-Change                         Max.-Flux-Residual
  Residual-Control   Outer-Iter.   Inner-Iter.     Column Row Layer    Maximum-Head-Change  Column Row Layer    Maximum-Flux-Residual          L2-NORM 
          0                 1           3            55    5     1      -0.9648134882E+00      55    5    1        -0.2261409799E-01      0.2062023427E+00
          0                 2           2            55    5     1       0.9464816788E-01      55    6    1         0.2171224645E-02      0.2058583650E-01
          0                 3           2            55    5     1      -0.8449581955E-02      55    6    1        -0.1952952104E-03      0.1852848783E-02
          0                 4           2            55    5     1       0.6705922641E-03      50    2    1         0.1564293821E-04      0.1485433465E-03
          0                 5           1            55    5     1      -0.4671498184E-04      50    2    1        -0.1099678069E-05      0.1046143984E-04
          0                 6           1            50    3     1       0.2805911254E-05      52    3    1         0.6748414272E-07      0.6295202013E-06
          0                 7           1            50    3     1      -0.1417852972E-06      52    3    1        -0.3553873640E-08      0.3187563025E-07

    ------------------------------------------------
       NWT REQUIRED            7 OUTER ITERATIONS 
       AND A TOTAL OF         12 INNER ITERATIONS.
    ------------------------------------------------

 NO OUTPUT CONTROL FOR STRESS PERIOD    2   TIME STEP   24
 
 SOLVING FOR HEAD 
                                                   Max.-Head-Change                         Max.-Flux-Residual
  Residual-Control   Outer-Iter.   Inner-Iter.     Column Row Layer    Maximum-Head-Change  Column Row Layer    Maximum-Flux-Residual          L2-NORM 
          0                 1           3            55    5     1      -0.1050873589E+01      55    5    1        -0.2239980360E-01      0.2045069390E+00
          0                 2           3            55    5     1       0.1029382559E+00      55    6    1         0.2152187436E-02      0.2040935196E-01
          0                 3           2            55    5     1      -0.9191024480E-02      55    6    1        -0.1935738518E-03      0.1836965899E-02
          0                 4           2            55    5     1       0.7294192699E-03      55    6    1         0.1550454651E-04      0.1472990602E-03
          0                 5           1            55    5     1      -0.5081131800E-04      50    2    1        -0.1089899824E-05      0.1037841939E-04
          0                 6           1            50    3     1       0.3053021029E-05      52    3    1         0.6725807467E-07      0.6232265388E-06
          0                 7           1            50    3     1      -0.1542859172E-06      52    3    1        -0.3572585783E-08      0.3150407337E-07

    ------------------------------------------------
       NWT REQUIRED            7 OUTER ITERATIONS 
       AND A TOTAL OF         13 INNER ITERATIONS.
    ------------------------------------------------

 NO OUTPUT CONTROL FOR STRESS PERIOD    2   TIME STEP   25
 
 SOLVING FOR HEAD 
                                                   Max.-Head-Change                         Max.-Flux-Residual
  Residual-Control   Outer-Iter.   Inner-Iter.     Column Row Layer    Maximum-Head-Change  Column Row Layer    Maximum-Flux-Residual          L2-NORM 
          0                 1           3            55    5     1      -0.1144355192E+01      55    5    1        -0.2218596655E-01      0.2027499701E+00
          0                 2           3            55    5     1       0.1119021852E+00      55    6    1         0.2133389258E-02      0.2022747197E-01
          0                 3           2            55    5     1      -0.9992954522E-02      55    6    1        -0.1918575380E-03      0.1820611068E-02
          0                 4           2            55    5     1       0.7930357188E-03      50    2    1         0.1536613510E-04      0.1460116481E-03
          0                 5           1            55    5     1      -0.5524201736E-04      50    2    1        -0.1080216720E-05      0.1029147379E-04
          0                 6           1            50    3     1       0.3318431726E-05      52    3    1         0.6702475552E-07      0.6162904807E-06
          0                 7           1            50    3     1      -0.1675981425E-06      52    3    1        -0.3590628239E-08      0.3108724947E-07

    ------------------------------------------------
       NWT REQUIRED            7 OUTER ITERATIONS 
       AND A TOTAL OF         13 INNER ITERATIONS.
    ------------------------------------------------

 NO OUTPUT CONTROL FOR STRESS PERIOD    2   TIME STEP   26
 
 SOLVING FOR HEAD 
                                                   Max.-Head-Change                         Max.-Flux-Residual
  Residual-Control   Outer-Iter.   Inner-Iter.     Column Row Layer    Maximum-Head-Change  Column Row Layer    Maximum-Flux-Residual          L2-NORM 
          0                 1           3            55    5     1      -0.1245893061E+01      55    5    1        -0.2196437385E-01      0.2009312582E+00
          0                 2           3            55    5     1       0.1215861273E+00      55    6    1         0.2115203224E-02      0.2003758399E-01
          0                 3           2            55    5     1      -0.1085963423E-01      55    6    1        -0.1901918302E-03      0.1803483192E-02
          0                 4           2            55    5     1       0.8617726915E-03      50    2    1         0.1523242329E-04      0.1446785251E-03
          0                 5           1            55    5     1      -0.6002791845E-04      50    2    1        -0.1070815376E-05      0.1020404167E-04
          0                 6           1            55    5     1       0.3603026239E-05      52    3    1         0.6676381403E-07      0.6088028418E-06
          0                 7           1            55    5     1      -0.1816719703E-06      52    3    1        -0.3601172693E-08      0.3063221287E-07

    ------------------------------------------------
       NWT REQUIRED            7 OUTER ITERATIONS 
       AND A TOTAL OF         13 INNER ITERATIONS.
    ------------------------------------------------

 NO OUTPUT CONTROL FOR STRESS PERIOD    2   TIME STEP   27
 
 SOLVING FOR HEAD 
                                                   Max.-Head-Change                         Max.-Flux-Residual
  Residual-Control   Outer-Iter.   Inner-Iter.     Column Row Layer    Maximum-Head-Change  Column Row Layer    Maximum-Flux-Residual          L2-NORM 
          0                 1           3            55    5     1      -0.1356326168E+01      55    5    1        -0.2174555995E-01      0.1990620567E+00
          0                 2           3            55    5     1       0.1320498695E+00      55    6    1         0.2098051499E-02      0.1984233553E-01
          0                 3           2            55    5     1      -0.1179663105E-01      55    6    1        -0.1886137662E-03      0.1785882225E-02
          0                 4           2            55    5     1       0.9360867053E-03      50    2    1         0.1510573851E-04      0.1432751954E-03
          0                 5           1            55    5     1      -0.6520797690E-04      50    2    1        -0.1061907719E-05      0.1010698367E-04
          0                 6           1            55    5     1       0.3919305959E-05      52    3    1         0.6674535769E-07      0.6001254335E-06
          0                 7           1            55    5     1      -0.1977624754E-06      52    3    1        -0.3643506830E-08      0.3012492110E-07

    ------------------------------------------------
       NWT REQUIRED            7 OUTER ITERATIONS 
       AND A TOTAL OF         13 INNER ITERATIONS.
    ------------------------------------------------

 NO OUTPUT CONTROL FOR STRESS PERIOD    2   TIME STEP   28
 
 SOLVING FOR HEAD 
                                                   Max.-Head-Change                         Max.-Flux-Residual
  Residual-Control   Outer-Iter.   Inner-Iter.     Column Row Layer    Maximum-Head-Change  Column Row Layer    Maximum-Flux-Residual          L2-NORM 
          0                 1           3            55    5     1      -0.1476533996E+01      55    5    1        -0.2152587578E-01      0.1971487417E+00
          0                 2           3            55    5     1       0.1433520849E+00      55    6    1         0.2082556447E-02      0.1964714640E-01
          0                 3           2            55    5     1      -0.1280901875E-01      55    6    1        -0.1871787606E-03      0.1768268949E-02
          0                 4           2            55    5     1       0.1016322503E-02      50    2    1         0.1499059211E-04      0.1419069460E-03
          0                 5           1            55    5     1      -0.7079268753E-04      50    2    1        -0.1053810879E-05      0.1001788758E-04
          0                 6           1            55    5     1       0.4255839270E-05      52    3    1         0.6684721576E-07      0.5919454512E-06
          0                 7           1            55    5     1      -0.2145741633E-06      52    3    1        -0.3689061501E-08      0.2968075467E-07

    ------------------------------------------------
       NWT REQUIRED            7 OUTER ITERATIONS 
       AND A TOTAL OF         13 INNER ITERATIONS.
    ------------------------------------------------

 NO OUTPUT CONTROL FOR STRESS PERIOD    2   TIME STEP   29
 
 SOLVING FOR HEAD 
                                                   Max.-Head-Change                         Max.-Flux-Residual
  Residual-Control   Outer-Iter.   Inner-Iter.     Column Row Layer    Maximum-Head-Change  Column Row Layer    Maximum-Flux-Residual          L2-NORM 
          0                 1           3            55    5     1      -0.1607584789E+01      55    5    1        -0.2130967597E-01      0.1951916925E+00
          0                 2           3            55    5     1       0.1555509958E+00      55    6    1         0.2069482942E-02      0.1944182087E-01
          0                 3           2            55    5     1      -0.1390188176E-01      55    6    1        -0.1859551691E-03      0.1749660171E-02
          0                 4           2            55    5     1       0.1102846556E-02      50    2    1         0.1489256966E-04      0.1404569197E-03
          0                 5           1            55    5     1      -0.7680253980E-04      50    2    1        -0.1046917463E-05      0.9923461933E-05
          0                 6           1            55    5     1       0.4610911499E-05      52    3    1         0.6673625919E-07      0.5826286509E-06
          0                 7           1            55    5     1      -0.2316720376E-06      52    3    1        -0.3699375029E-08      0.2920060100E-07

    ------------------------------------------------
       NWT REQUIRED            7 OUTER ITERATIONS 
       AND A TOTAL OF         13 INNER ITERATIONS.
    ------------------------------------------------

 NO OUTPUT CONTROL FOR STRESS PERIOD    2   TIME STEP   30



 STREAM LISTING     PERIOD      2   STEP       30

 LAYER ROW COL. STREAM  RCH.   FLOW INTO    STREAM     FLOW OUT OF   OVRLND.    DIRECT     STREAM      STREAM      STREAM     STREAM  STREAMBED   FLOW TO   CHNG. UNSAT. 
                SEG.NO.  NO.   STRM. RCH.    LOSS       STRM. RCH.   RUNOFF     PRECIP       ET         HEAD        DEPTH      WIDTH  CONDCTNC.   WAT. TAB.

   1    4    1     1     1    2.5330E+00  1.0459E-03   2.5320E+00  0.000E+00  0.000E+00  0.000E+00  1.41036E+02  1.186E+00  3.231E+00  6.205E-04  0.000E+00  1.046E-03
   1    4    2     1     2    2.5320E+00  1.0456E-03   2.5309E+00  0.000E+00  0.000E+00  0.000E+00  1.40735E+02  1.185E+00  3.231E+00  6.204E-04  0.000E+00  1.046E-03
   1    4    3     1     3    2.5309E+00  1.0453E-03   2.5299E+00  0.000E+00  0.000E+00  0.000E+00  1.40435E+02  1.185E+00  3.230E+00  6.203E-04  0.000E+00  1.045E-03
   1    4    4     1     4    2.5299E+00  1.0450E-03   2.5288E+00  0.000E+00  0.000E+00  0.000E+00  1.40135E+02  1.185E+00  3.230E+00  6.203E-04  0.000E+00  1.045E-03
   1    4    5     1     5    2.5288E+00  1.0447E-03   2.5278E+00  0.000E+00  0.000E+00  0.000E+00  1.39835E+02  1.185E+00  3.230E+00  6.202E-04  0.000E+00  1.045E-03
   1    4    6     1     6    2.5278E+00  1.0444E-03   2.5267E+00  0.000E+00  0.000E+00  0.000E+00  1.39534E+02  1.184E+00  3.229E+00  6.201E-04  0.000E+00  1.044E-03
   1    4    7     1     7    2.5267E+00  1.0441E-03   2.5257E+00  0.000E+00  0.000E+00  0.000E+00  1.39234E+02  1.184E+00  3.229E+00  6.200E-04  0.000E+00  1.044E-03
   1    4    8     1     8    2.5257E+00  1.0438E-03   2.5246E+00  0.000E+00  0.000E+00  0.000E+00  1.38934E+02  1.184E+00  3.229E+00  6.199E-04  0.000E+00  1.044E-03
   1    4    9     1     9    2.5246E+00  1.0435E-03   2.5236E+00  0.000E+00  0.000E+00  0.000E+00  1.38634E+02  1.184E+00  3.229E+00  6.198E-04  0.000E+00  1.044E-03
   1    4   10     1    10    2.5236E+00  1.0432E-03   2.5226E+00  0.000E+00  0.000E+00  0.000E+00  1.38333E+02  1.183E+00  3.228E+00  6.198E-04  0.000E+00  1.043E-03
   1    4   11     1    11    2.5226E+00  1.0429E-03   2.5215E+00  0.000E+00  0.000E+00  0.000E+00  1.38033E+02  1.183E+00  3.228E+00  6.197E-04  0.000E+00  1.043E-03
   1    4   12     1    12    2.5215E+00  1.0426E-03   2.5205E+00  0.000E+00  0.000E+00  0.000E+00  1.37733E+02  1.183E+00  3.228E+00  6.196E-04  0.000E+00  1.043E-03
   1    4   13     1    13    2.5205E+00  1.0423E-03   2.5194E+00  0.000E+00  0.000E+00  0.000E+00  1.37433E+02  1.183E+00  3.227E+00  6.195E-04  0.000E+00  1.042E-03
   1    4   14     1    14    2.5194E+00  1.0421E-03   2.5184E+00  0.000E+00  0.000E+00  0.000E+00  1.37132E+02  1.182E+00  3.227E+00  6.194E-04  0.000E+00  1.042E-03
   1    4   15     1    15    2.5184E+00  1.0418E-03   2.5173E+00  0.000E+00  0.000E+00  0.000E+00  1.36832E+02  1.182E+00  3.227E+00  6.193E-04  0.000E+00  1.042E-03
   1    4   16     1    16    2.5173E+00  1.0415E-03   2.5163E+00  0.000E+00  0.000E+00  0.000E+00  1.36532E+02  1.182E+00  3.226E+00  6.193E-04  0.000E+00  1.041E-03
   1    4   17     1    17    2.5163E+00  1.0412E-03   2.5153E+00  0.000E+00  0.000E+00  0.000E+00  1.36232E+02  1.182E+00  3.226E+00  6.192E-04  0.000E+00  1.041E-03
   1    4   18     1    18    2.5153E+00  1.0409E-03   2.5142E+00  0.000E+00  0.000E+00  0.000E+00  1.35931E+02  1.181E+00  3.226E+00  6.191E-04  0.000E+00  1.041E-03
   1    4   19     1    19    2.5142E+00  1.0406E-03   2.5132E+00  0.000E+00  0.000E+00  0.000E+00  1.35631E+02  1.181E+00  3.226E+00  6.190E-04  0.000E+00  1.041E-03
   1    4   20     1    20    2.5132E+00  1.0403E-03   2.5121E+00  0.000E+00  0.000E+00  0.000E+00  1.35331E+02  1.181E+00  3.225E+00  6.189E-04  0.000E+00  1.040E-03
   1    4   21     1    21    2.5121E+00  1.0400E-03   2.5111E+00  0.000E+00  0.000E+00  0.000E+00  1.35031E+02  1.181E+00  3.225E+00  6.189E-04  0.000E+00  1.040E-03
   1    4   22     1    22    2.5111E+00  1.0397E-03   2.5101E+00  0.000E+00  0.000E+00  0.000E+00  1.34730E+02  1.180E+00  3.225E+00  6.188E-04  0.000E+00  1.040E-03
   1    4   23     1    23    2.5101E+00  1.0394E-03   2.5090E+00  0.000E+00  0.000E+00  0.000E+00  1.34430E+02  1.180E+00  3.224E+00  6.187E-04  0.000E+00  1.039E-03
   1    4   24     1    24    2.5090E+00  1.0391E-03   2.5080E+00  0.000E+00  0.000E+00  0.000E+00  1.34130E+02  1.180E+00  3.224E+00  6.186E-04  0.000E+00  1.039E-03
   1    4   25     1    25    2.5080E+00  1.0388E-03   2.5069E+00  0.000E+00  0.000E+00  0.000E+00  1.33829E+02  1.179E+00  3.224E+00  6.185E-04  0.000E+00  1.039E-03
   1    4   26     1    26    2.5069E+00  1.0385E-03   2.5059E+00  0.000E+00  0.000E+00  0.000E+00  1.33529E+02  1.179E+00  3.223E+00  6.184E-04  0.000E+00  1.039E-03
   1    4   27     1    27    2.5059E+00  1.0382E-03   2.5049E+00  0.000E+00  0.000E+00  0.000E+00  1.33229E+02  1.179E+00  3.223E+00  6.184E-04  0.000E+00  1.038E-03
   1    4   28     1    28    2.5049E+00  1.0379E-03   2.5038E+00  0.000E+00  0.000E+00  0.000E+00  1.32929E+02  1.179E+00  3.223E+00  6.183E-04  0.000E+00  1.038E-03
   1    4   29     1    29    2.5038E+00  1.0376E-03   2.5028E+00  0.000E+00  0.000E+00  0.000E+00  1.32628E+02  1.178E+00  3.222E+00  6.182E-04  0.000E+00  1.038E-03
   1    4   30     1    30    2.5028E+00  1.0373E-03   2.5018E+00  0.000E+00  0.000E+00  0.000E+00  1.32328E+02  1.178E+00  3.222E+00  6.181E-04  0.000E+00  1.037E-03
   1    4   31     1    31    2.5018E+00  1.0370E-03   2.5007E+00  0.000E+00  0.000E+00  0.000E+00  1.32028E+02  1.178E+00  3.222E+00  6.180E-04  0.000E+00  1.037E-03
   1    4   32     1    32    2.5007E+00  1.0367E-03   2.4997E+00  0.000E+00  0.000E+00  0.000E+00  1.31728E+02  1.178E+00  3.222E+00  6.179E-04  0.000E+00  1.037E-03
   1    4   33     1    33    2.4997E+00  1.0365E-03   2.4986E+00  0.000E+00  0.000E+00  0.000E+00  1.31427E+02  1.177E+00  3.221E+00  6.179E-04  0.000E+00  1.036E-03
   1    4   34     1    34    2.4986E+00  1.0362E-03   2.4976E+00  0.000E+00  0.000E+00  0.000E+00  1.31127E+02  1.177E+00  3.221E+00  6.178E-04  0.000E+00  1.036E-03
   1    4   35     1    35    2.4976E+00  1.0359E-03   2.4966E+00  0.000E+00  0.000E+00  0.000E+00  1.30827E+02  1.177E+00  3.221E+00  6.177E-04  0.000E+00  1.036E-03
   1    4   36     1    36    2.4966E+00  1.0356E-03   2.4955E+00  0.000E+00  0.000E+00  0.000E+00  1.30527E+02  1.177E+00  3.220E+00  6.176E-04  0.000E+00  1.036E-03
   1    4   37     1    37    2.4955E+00  1.0353E-03   2.4945E+00  0.000E+00  0.000E+00  0.000E+00  1.30226E+02  1.176E+00  3.220E+00  6.175E-04  0.000E+00  1.035E-03
   1    4   38     1    38    2.4945E+00  1.0350E-03   2.4935E+00  0.000E+00  0.000E+00  0.000E+00  1.29926E+02  1.176E+00  3.220E+00  6.175E-04  0.000E+00  1.035E-03
   1    4   39     1    39    2.4935E+00  1.0347E-03   2.4924E+00  0.000E+00  0.000E+00  0.000E+00  1.29626E+02  1.176E+00  3.219E+00  6.174E-04  0.000E+00  1.035E-03
   1    4   40     1    40    2.4924E+00  1.0344E-03   2.4914E+00  0.000E+00  0.000E+00  0.000E+00  1.29326E+02  1.176E+00  3.219E+00  6.173E-04  0.000E+00  1.034E-03
   1    4   41     1    41    2.4914E+00  1.0341E-03   2.4904E+00  0.000E+00  0.000E+00  0.000E+00  1.29025E+02  1.175E+00  3.219E+00  6.172E-04  0.000E+00  1.034E-03
   1    4   42     1    42    2.4904E+00  1.0338E-03   2.4893E+00  0.000E+00  0.000E+00  0.000E+00  1.28725E+02  1.175E+00  3.219E+00  6.171E-04  0.000E+00  1.034E-03
   1    4   43     1    43    2.4893E+00  1.0335E-03   2.4883E+00  0.000E+00  0.000E+00  0.000E+00  1.28425E+02  1.175E+00  3.218E+00  6.170E-04  0.000E+00  1.034E-03
   1    4   44     1    44    2.4883E+00  1.0332E-03   2.4873E+00  0.000E+00  0.000E+00  0.000E+00  1.28125E+02  1.175E+00  3.218E+00  6.170E-04  0.000E+00  1.033E-03
   1    4   45     1    45    2.4873E+00  1.0329E-03   2.4862E+00  0.000E+00  0.000E+00  0.000E+00  1.27824E+02  1.174E+00  3.218E+00  6.169E-04  0.000E+00  1.033E-03
   1    4   46     1    46    2.4862E+00  1.0326E-03   2.4852E+00  0.000E+00  0.000E+00  0.000E+00  1.27524E+02  1.174E+00  3.217E+00  6.168E-04  0.000E+00  1.033E-03
   1    4   47     1    47    2.4852E+00  1.0323E-03   2.4842E+00  0.000E+00  0.000E+00  0.000E+00  1.27224E+02  1.174E+00  3.217E+00  6.167E-04  0.000E+00  1.032E-03
   1    4   48     1    48    2.4842E+00  1.0320E-03   2.4831E+00  0.000E+00  0.000E+00  0.000E+00  1.26924E+02  1.174E+00  3.217E+00  6.166E-04  0.000E+00  1.032E-03
   1    4   49     1    49    2.4831E+00  1.0318E-03   2.4821E+00  0.000E+00  0.000E+00  0.000E+00  1.26623E+02  1.173E+00  3.216E+00  6.165E-04  0.000E+00  1.032E-03
   1    4   50     1    50    2.4821E+00  1.0315E-03   2.4811E+00  0.000E+00  0.000E+00  0.000E+00  1.26323E+02  1.173E+00  3.216E+00  6.165E-04  0.000E+00  1.031E-03
   1    4   51     1    51    2.4811E+00  1.0312E-03   2.4800E+00  0.000E+00  0.000E+00  0.000E+00  1.26023E+02  1.173E+00  3.216E+00  6.164E-04  0.000E+00  1.031E-03
   1    4   52     1    52    2.4800E+00  1.0309E-03   2.4790E+00  0.000E+00  0.000E+00  0.000E+00  1.25723E+02  1.173E+00  3.216E+00  6.163E-04  0.000E+00  1.031E-03
   1    4   53     1    53    2.4790E+00  1.0306E-03   2.4780E+00  0.000E+00  0.000E+00  0.000E+00  1.25422E+02  1.172E+00  3.215E+00  6.162E-04  0.000E+00  1.031E-03
   1    4   54     1    54    2.4780E+00  1.0303E-03   2.4769E+00  0.000E+00  0.000E+00  0.000E+00  1.25122E+02  1.172E+00  3.215E+00  6.161E-04  0.000E+00  1.030E-03
   1    4   55     1    55    2.4769E+00  1.0300E-03   2.4759E+00  0.000E+00  0.000E+00  0.000E+00  1.24822E+02  1.172E+00  3.215E+00  6.161E-04  0.000E+00  1.030E-03
   1    4   56     1    56    2.4759E+00  1.0297E-03   2.4749E+00  0.000E+00  0.000E+00  0.000E+00  1.24522E+02  1.172E+00  3.214E+00  6.160E-04  0.000E+00  1.030E-03
   1    4   57     1    57    2.4749E+00  1.0294E-03   2.4739E+00  0.000E+00  0.000E+00  0.000E+00  1.24221E+02  1.171E+00  3.214E+00  6.159E-04  0.000E+00  1.029E-03
   1    4   58     1    58    2.4739E+00  1.0291E-03   2.4728E+00  0.000E+00  0.000E+00  0.000E+00  1.23921E+02  1.171E+00  3.214E+00  6.158E-04  0.000E+00  1.029E-03
   1    4   59     1    59    2.4728E+00  1.0288E-03   2.4718E+00  0.000E+00  0.000E+00  0.000E+00  1.23621E+02  1.171E+00  3.213E+00  6.157E-04  0.000E+00  1.029E-03
   1    4   60     1    60    2.4718E+00  1.0285E-03   2.4708E+00  0.000E+00  0.000E+00  0.000E+00  1.23321E+02  1.171E+00  3.213E+00  6.156E-04  0.000E+00  1.029E-03
   1    4   61     1    61    2.4708E+00  1.0282E-03   2.4697E+00  0.000E+00  0.000E+00  0.000E+00  1.23020E+02  1.170E+00  3.213E+00  6.156E-04  0.000E+00  1.028E-03
   1    4   62     1    62    2.4697E+00  1.0279E-03   2.4687E+00  0.000E+00  0.000E+00  0.000E+00  1.22720E+02  1.170E+00  3.213E+00  6.155E-04  0.000E+00  1.028E-03
   1    4   63     1    63    2.4687E+00  1.0277E-03   2.4677E+00  0.000E+00  0.000E+00  0.000E+00  1.22420E+02  1.170E+00  3.212E+00  6.154E-04  3.372E-04  6.904E-04
   1    4   64     1    64    2.4677E+00  1.0274E-03   2.4667E+00  0.000E+00  0.000E+00  0.000E+00  1.22120E+02  1.170E+00  3.212E+00  6.153E-04  7.379E-04  2.895E-04
   1    4   65     1    65    2.4667E+00  1.0271E-03   2.4656E+00  0.000E+00  0.000E+00  0.000E+00  1.21819E+02  1.169E+00  3.212E+00  6.152E-04  7.685E-04  2.586E-04
   1    4   66     1    66    2.4656E+00  1.0268E-03   2.4646E+00  0.000E+00  0.000E+00  0.000E+00  1.21519E+02  1.169E+00  3.211E+00  6.151E-04  7.968E-04  2.300E-04
   1    4   67     1    67    2.4646E+00  1.0265E-03   2.4636E+00  0.000E+00  0.000E+00  0.000E+00  1.21219E+02  1.169E+00  3.211E+00  6.151E-04  8.228E-04  2.037E-04
   1    4   68     1    68    2.4636E+00  1.0262E-03   2.4626E+00  0.000E+00  0.000E+00  0.000E+00  1.20919E+02  1.169E+00  3.211E+00  6.150E-04  8.462E-04  1.800E-04
   1    4   69     1    69    2.4626E+00  1.0259E-03   2.4615E+00  0.000E+00  0.000E+00  0.000E+00  1.20618E+02  1.168E+00  3.210E+00  6.149E-04  8.672E-04  1.587E-04
   1    4   70     1    70    2.4615E+00  1.0256E-03   2.4605E+00  0.000E+00  0.000E+00  0.000E+00  1.20318E+02  1.168E+00  3.210E+00  6.148E-04  8.855E-04  1.401E-04
   1    4   71     1    71    2.4605E+00  1.0253E-03   2.4595E+00  0.000E+00  0.000E+00  0.000E+00  1.20018E+02  1.168E+00  3.210E+00  6.147E-04  9.013E-04  1.240E-04
   1    4   72     1    72    2.4595E+00  1.0250E-03   2.4584E+00  0.000E+00  0.000E+00  0.000E+00  1.19718E+02  1.168E+00  3.210E+00  6.147E-04  9.145E-04  1.105E-04
   1    4   73     1    73    2.4584E+00  1.0247E-03   2.4574E+00  0.000E+00  0.000E+00  0.000E+00  1.19417E+02  1.167E+00  3.209E+00  6.146E-04  9.251E-04  9.960E-05
   1    4   74     1    74    2.4574E+00  1.0244E-03   2.4564E+00  0.000E+00  0.000E+00  0.000E+00  1.19117E+02  1.167E+00  3.209E+00  6.145E-04  9.333E-04  9.113E-05
   1    4   75     1    75    2.4564E+00  1.0242E-03   2.4554E+00  0.000E+00  0.000E+00  0.000E+00  1.18817E+02  1.167E+00  3.209E+00  6.144E-04  9.391E-04  8.504E-05
   1    4   76     1    76    2.4554E+00  1.0239E-03   2.4544E+00  0.000E+00  0.000E+00  0.000E+00  1.18517E+02  1.167E+00  3.208E+00  6.143E-04  9.426E-04  8.122E-05
   1    4   77     1    77    2.4544E+00  1.0236E-03   2.4533E+00  0.000E+00  0.000E+00  0.000E+00  1.18216E+02  1.166E+00  3.208E+00  6.142E-04  9.440E-04  7.955E-05
   1    4   78     1    78    2.4533E+00  1.0233E-03   2.4523E+00  0.000E+00  0.000E+00  0.000E+00  1.17916E+02  1.166E+00  3.208E+00  6.142E-04  9.434E-04  7.986E-05
   1    4   79     1    79    2.4523E+00  1.0230E-03   2.4513E+00  0.000E+00  0.000E+00  0.000E+00  1.17616E+02  1.166E+00  3.207E+00  6.141E-04  9.410E-04  8.197E-05
   1    4   80     1    80    2.4513E+00  1.0227E-03   2.4503E+00  0.000E+00  0.000E+00  0.000E+00  1.17316E+02  1.166E+00  3.207E+00  6.140E-04  9.370E-04  8.568E-05
   1    4   81     1    81    2.4503E+00  1.0224E-03   2.4492E+00  0.000E+00  0.000E+00  0.000E+00  1.17015E+02  1.165E+00  3.207E+00  6.139E-04  9.317E-04  9.076E-05
   1    4   82     1    82    2.4492E+00  1.0221E-03   2.4482E+00  0.000E+00  0.000E+00  0.000E+00  1.16715E+02  1.165E+00  3.207E+00  6.138E-04  9.252E-04  9.695E-05
   1    4   83     1    83    2.4482E+00  1.0218E-03   2.4472E+00  0.000E+00  0.000E+00  0.000E+00  1.16415E+02  1.165E+00  3.206E+00  6.138E-04  9.178E-04  1.040E-04
   1    4   84     1    84    2.4472E+00  1.0215E-03   2.4462E+00  0.000E+00  0.000E+00  0.000E+00  1.16115E+02  1.165E+00  3.206E+00  6.137E-04  9.100E-04  1.115E-04
   1    4   85     1    85    2.4462E+00  1.0212E-03   2.4451E+00  0.000E+00  0.000E+00  0.000E+00  1.15814E+02  1.164E+00  3.206E+00  6.136E-04  9.020E-04  1.192E-04
   1    4   86     1    86    2.4451E+00  1.0210E-03   2.4441E+00  0.000E+00  0.000E+00  0.000E+00  1.15514E+02  1.164E+00  3.205E+00  6.135E-04  8.942E-04  1.268E-04
   1    4   87     1    87    2.4441E+00  1.0207E-03   2.4431E+00  0.000E+00  0.000E+00  0.000E+00  1.15214E+02  1.164E+00  3.205E+00  6.134E-04  8.870E-04  1.337E-04
   1    4   88     1    88    2.4431E+00  1.0204E-03   2.4421E+00  0.000E+00  0.000E+00  0.000E+00  1.14914E+02  1.164E+00  3.205E+00  6.133E-04  8.808E-04  1.396E-04
   1    4   89     1    89    2.4421E+00  1.0201E-03   2.4411E+00  0.000E+00  0.000E+00  0.000E+00  1.14613E+02  1.163E+00  3.204E+00  6.133E-04  8.761E-04  1.440E-04
   1    4   90     1    90    2.4411E+00  1.0198E-03   2.4400E+00  0.000E+00  0.000E+00  0.000E+00  1.14313E+02  1.163E+00  3.204E+00  6.132E-04  8.733E-04  1.465E-04
   1    4   91     1    91    2.4400E+00  1.0195E-03   2.4390E+00  0.000E+00  0.000E+00  0.000E+00  1.14013E+02  1.163E+00  3.204E+00  6.131E-04  8.729E-04  1.466E-04
   1    4   92     1    92    2.4390E+00  1.0192E-03   2.4380E+00  0.000E+00  0.000E+00  0.000E+00  1.13713E+02  1.163E+00  3.203E+00  6.130E-04  8.752E-04  1.440E-04
   1    4   93     1    93    2.4380E+00  1.0189E-03   2.4370E+00  0.000E+00  0.000E+00  0.000E+00  1.13412E+02  1.162E+00  3.203E+00  6.129E-04  8.807E-04  1.383E-04
   1    4   94     1    94    2.4370E+00  1.0186E-03   2.4360E+00  0.000E+00  0.000E+00  0.000E+00  1.13112E+02  1.162E+00  3.203E+00  6.129E-04  8.897E-04  1.289E-04
   1    4   95     1    95    2.4360E+00  1.0183E-03   2.4350E+00  0.000E+00  0.000E+00  0.000E+00  1.12812E+02  1.162E+00  3.203E+00  6.128E-04  9.030E-04  1.154E-04
   1    4   96     1    96    2.4350E+00  1.0181E-03   2.4339E+00  0.000E+00  0.000E+00  0.000E+00  1.12512E+02  1.162E+00  3.202E+00  6.127E-04  3.698E-04  6.483E-04
   1    4   97     1    97    2.4339E+00  1.0178E-03   2.4329E+00  0.000E+00  0.000E+00  0.000E+00  1.12211E+02  1.161E+00  3.202E+00  6.126E-04  0.000E+00  1.018E-03
   1    4   98     1    98    2.4329E+00  1.0175E-03   2.4319E+00  0.000E+00  0.000E+00  0.000E+00  1.11911E+02  1.161E+00  3.202E+00  6.125E-04  0.000E+00  1.017E-03
   1    4   99     1    99    2.4319E+00  1.0172E-03   2.4309E+00  0.000E+00  0.000E+00  0.000E+00  1.11611E+02  1.161E+00  3.201E+00  6.124E-04  0.000E+00  1.017E-03
   1    4  100     1   100    2.4309E+00  1.0169E-03   2.4299E+00  0.000E+00  0.000E+00  0.000E+00  1.11311E+02  1.161E+00  3.201E+00  6.124E-04  0.000E+00  1.017E-03



1
  VOLUMETRIC BUDGET FOR UNSATURATED ZONE BENEATH STREAMS AT END OF TIME STEP    30 STRESS PERIOD   2
  ------------------------------------------------------------------------------------------------

    CUMULATIVE VOLUMES             L**3    RATES FOR THIS TIME STEP         L**3/T
    ------------------                     ------------------------


          STREAM LOSS =       355607.1875            STREAM LOSS =            0.1031
    CHANGE IN STORAGE =       313926.2500      CHANGE IN STORAGE =        7.3961E-02
       RECHARGE TO GW =        41680.7578         RECHARGE TO GW =        2.9173E-02

             TOTAL IN =       355607.1875               TOTAL IN =            0.1031

            TOTAL OUT =       355607.0000              TOTAL OUT =            0.1031

             IN - OUT =            0.1875               IN - OUT =       -7.4506E-09

  PERCENT DISCREPANCY =            0.00      PERCENT DISCREPANCY =            -0.00



1
  VOLUMETRIC BUDGET FOR ENTIRE MODEL AT END OF TIME STEP   30, STRESS PERIOD   2
  ------------------------------------------------------------------------------

     CUMULATIVE VOLUMES      L**3       RATES FOR THIS TIME STEP      L**3/T
     ------------------                 ------------------------

           IN:                                      IN:
           ---                                      ---
             STORAGE     =    19900326.0000               STORAGE     =           3.3558
       CONSTANT HEAD     =           0.0000         CONSTANT HEAD     =           0.0000
               WELLS     =           0.0000                 WELLS     =           0.0000
     HEAD DEP BOUNDS     =           0.0000       HEAD DEP BOUNDS     =           0.0000
      STREAM LEAKAGE     =       41680.7617        STREAM LEAKAGE     =       2.9173E-02

                TOTAL IN =    19942006.0000                  TOTAL IN =           3.3850

          OUT:                                     OUT:
          ----                                     ----
             STORAGE     =       9.6035E-08               STORAGE     =           0.0000
       CONSTANT HEAD     =           0.0000         CONSTANT HEAD     =           0.0000
               WELLS     =    14878080.0000                 WELLS     =           2.9000
     HEAD DEP BOUNDS     =     5063925.0000       HEAD DEP BOUNDS     =           0.4850
      STREAM LEAKAGE     =           0.0000        STREAM LEAKAGE     =           0.0000

               TOTAL OUT =    19942004.0000                 TOTAL OUT =           3.3850

                IN - OUT =           2.0000                  IN - OUT =           0.0000

     PERCENT DISCREPANCY =           0.00         PERCENT DISCREPANCY =           0.00






         TIME SUMMARY AT END OF TIME STEP   30 IN STRESS PERIOD    2
                    SECONDS     MINUTES      HOURS       DAYS        YEARS
                    -----------------------------------------------------------
   TIME STEP LENGTH 2.49961E+05  4166.0      69.434      2.8931     7.92080E-03
 STRESS PERIOD TIME 2.59200E+06  43200.      720.00      30.000     8.21355E-02
         TOTAL TIME 5.18400E+06  86400.      1440.0      60.000     0.16427    
1
1
                            STRESS PERIOD NO.    3, LENGTH =   2592000.    
                            -----------------------------------------------

                              NUMBER OF TIME STEPS =    30

                               MULTIPLIER FOR DELT =     1.100

                            INITIAL TIME STEP SIZE =   15757.40    

 REUSING NON-PARAMETER WELLS FROM LAST STRESS PERIOD

      1 WELL 

 REUSING NON-PARAMETER GHB CELLS FROM LAST STRESS PERIOD

      7 GHB CELLS



 CLASSIFICATION & COUNT OF STREAM SEGMENTS BASED ON SOURCE OF INFLOW:

                HEADWATER     DIVERSION     RECEIVES TRIBUTARY FLOW
                ---------     ---------     -----------------------
                     1              0               0



                    INPUT DATA FOR EACH STREAM SEGMENT
 ---------------------------------------------------------------------------------------------

 SEGMENT    SEG.     INFLOW   OVERLAND   STREAM    STREAM   ICALC  OUTFLOW  DIVERSION PRIORITY
    NO.    LENGTH     RATE     RUNOFF      ET       PPT.    METH.  TO SEG.  FROM SEG.    NO.

      1  2.000E+04 3.840E+00 0.000E+00 0.000E+00 0.000E+00    2        0        0        0


         STREAMBED PROPERTIES AND STREAM DIMENSIONS

 SEGMENT     BED HYD. COND.      BED THICKNESS     ELEV.-TOP OF BED     WIDTH OF STREAM     DEPTH OF STREAM    STREAM ROUGHNESS
    No.     UPPER     LOWER     UPPER     LOWER     UPPER     LOWER     UPPER     LOWER     UPPER     LOWER   CHANNEL      BANK

     1  3.500E-07 3.500E-07                                                                                 3.000E-02 4.000E-02

  EIGHT POINT CROSS-SECTION DATA FOR SEGMENTS WITH ICALC = 2
    X VALUES X VALUES START FROM LEFT SIDE LOOKING DOWNSTREAM

     SEGMENT NO.        X1        X2        X3        X4        X5        X6        X7        X8
            1      0.000E+00 2.000E+00 4.000E+00 6.000E+00 8.000E+00 1.000E+01 1.200E+01 1.400E+01

    Z VALUES ARE RELATIVE TO STREAMBED ELEVATION

     SEGMENT NO.          Z1        Z2        Z3        Z4        Z5        Z6        Z7        Z8
            1      6.000E+00 4.500E+00 3.500E+00 0.000E+00 3.000E-01 3.500E+00 4.500E+00 6.000E+00



 
 SOLVING FOR HEAD 
                                                   Max.-Head-Change                         Max.-Flux-Residual
  Residual-Control   Outer-Iter.   Inner-Iter.     Column Row Layer    Maximum-Head-Change  Column Row Layer    Maximum-Flux-Residual          L2-NORM 
          0                 1           2            50    3     1       0.8316041241E+00      50    3    1         0.3589029765E+00      0.5422718195E+00
          0                 2           2            50    3     1      -0.8294261640E-01      50    3    1        -0.3629964281E-01      0.5477682917E-01
          0                 3           2            50    3     1       0.7391726683E-02      50    3    1         0.3262972174E-02      0.4924160679E-02
          0                 4           2            50    3     1      -0.5867475807E-03      50    3    1        -0.2613959420E-03      0.3945242787E-03
          0                 5           1            50    3     1       0.4087356105E-04      50    3    1         0.1837568068E-04      0.2774085223E-04
          0                 6           1            50    3     1      -0.2454330959E-05      50    3    1        -0.1113488670E-05      0.1681424420E-05
          0                 7           1            50    3     1       0.1240133421E-06      50    3    1         0.5677653014E-07      0.8575690633E-07

    ------------------------------------------------
       NWT REQUIRED            7 OUTER ITERATIONS 
       AND A TOTAL OF         11 INNER ITERATIONS.
    ------------------------------------------------

 NO OUTPUT CONTROL FOR STRESS PERIOD    3   TIME STEP    1
 
 SOLVING FOR HEAD 
                                                   Max.-Head-Change                         Max.-Flux-Residual
  Residual-Control   Outer-Iter.   Inner-Iter.     Column Row Layer    Maximum-Head-Change  Column Row Layer    Maximum-Flux-Residual          L2-NORM 
          0                 1           2            50    3     1       0.4754372115E+00      50    3    1         0.1726228213E+00      0.3041082560E+00
          0                 2           2            50    3     1      -0.4740207626E-01      50    3    1        -0.1746773340E-01      0.3057301513E-01
          0                 3           2            50    3     1       0.4224531115E-02      50    3    1         0.1570061146E-02      0.2749271445E-02
          0                 4           2            50    3     1      -0.3353378342E-03      50    3    1        -0.1257781000E-03      0.2203375100E-03
          0                 5           1            50    3     1       0.2336004343E-04      50    3    1         0.8841976488E-05      0.1550209859E-04
          0                 6           1            50    3     1      -0.1402686878E-05      50    3    1        -0.5357817194E-06      0.9402480106E-06
          0                 7           1            50    3     1       0.7087482161E-07      55    5    1         0.2731922688E-07      0.4798683828E-07

    ------------------------------------------------
       NWT REQUIRED            7 OUTER ITERATIONS 
       AND A TOTAL OF         11 INNER ITERATIONS.
    ------------------------------------------------

 NO OUTPUT CONTROL FOR STRESS PERIOD    3   TIME STEP    2
 
 SOLVING FOR HEAD 
                                                   Max.-Head-Change                         Max.-Flux-Residual
  Residual-Control   Outer-Iter.   Inner-Iter.     Column Row Layer    Maximum-Head-Change  Column Row Layer    Maximum-Flux-Residual          L2-NORM 
          0                 1           2            50    3     1       0.2885209338E+00      50    3    1         0.8970260316E-01      0.2162684324E+00
          0                 2           2            50    3     1      -0.2870275088E-01      50    3    1        -0.9046468990E-02      0.2161831180E-01
          0                 3           2            50    3     1       0.2558653299E-02      50    3    1         0.8134263009E-03      0.1944731290E-02
          0                 4           2            50    3     1      -0.2030975431E-03      50    3    1        -0.6516146934E-04      0.1559365762E-03
          0                 5           1            50    3     1       0.1414804185E-04      50    3    1         0.4580750220E-05      0.1098186396E-04
          0                 6           1            50    3     1      -0.8495249302E-06      50    3    1        -0.2775661994E-06      0.6668586883E-06

    ------------------------------------------------
       NWT REQUIRED            6 OUTER ITERATIONS 
       AND A TOTAL OF         10 INNER ITERATIONS.
    ------------------------------------------------

 NO OUTPUT CONTROL FOR STRESS PERIOD    3   TIME STEP    3
 
 SOLVING FOR HEAD 
                                                   Max.-Head-Change                         Max.-Flux-Residual
  Residual-Control   Outer-Iter.   Inner-Iter.     Column Row Layer    Maximum-Head-Change  Column Row Layer    Maximum-Flux-Residual          L2-NORM 
          0                 1           2            50    3     1       0.1807742164E+00      50    3    1         0.4951252400E-01      0.1792691512E+00
          0                 2           2            50    3     1      -0.1794903844E-01      50    3    1        -0.4976851942E-02      0.1787120833E-01
          0                 3           2            50    3     1       0.1600381712E-02      50    3    1         0.4476633255E-03      0.1607756427E-02
          0                 4           2            50    3     1      -0.1270302775E-03      50    3    1        -0.3585985514E-04      0.1289863318E-03
          0                 5           1            50    3     1       0.8849099069E-05      50    3    1         0.2520900338E-05      0.9093141056E-05
          0                 6           1            50    3     1      -0.5313320446E-06      50    3    1        -0.1527460878E-06      0.5528606529E-06

    ------------------------------------------------
       NWT REQUIRED            6 OUTER ITERATIONS 
       AND A TOTAL OF         10 INNER ITERATIONS.
    ------------------------------------------------

 NO OUTPUT CONTROL FOR STRESS PERIOD    3   TIME STEP    4
 
 SOLVING FOR HEAD 
                                                   Max.-Head-Change                         Max.-Flux-Residual
  Residual-Control   Outer-Iter.   Inner-Iter.     Column Row Layer    Maximum-Head-Change  Column Row Layer    Maximum-Flux-Residual          L2-NORM 
          0                 1           2            53    1     1      -0.1140873801E+00      50    3    1         0.2819411815E-01      0.1609942964E+00
          0                 2           2            53    1     1       0.1129535206E-01      50    3    1        -0.2826466240E-02      0.1602817160E-01
          0                 3           2            53    1     1      -0.1007444436E-02      50    3    1         0.2543124112E-03      0.1441873319E-02
          0                 4           1            53    1     1       0.7996317622E-04      50    3    1        -0.2037098245E-04      0.1157412977E-03
          0                 5           1            53    1     1      -0.5570247366E-05      50    3    1         0.1431886371E-05      0.8167403712E-05
          0                 6           1            53    1     1       0.3344689383E-06      55    5    1        -0.8675943608E-07      0.4972254716E-06

    ------------------------------------------------
       NWT REQUIRED            6 OUTER ITERATIONS 
       AND A TOTAL OF          9 INNER ITERATIONS.
    ------------------------------------------------

 NO OUTPUT CONTROL FOR STRESS PERIOD    3   TIME STEP    5
 
 SOLVING FOR HEAD 
                                                   Max.-Head-Change                         Max.-Flux-Residual
  Residual-Control   Outer-Iter.   Inner-Iter.     Column Row Layer    Maximum-Head-Change  Column Row Layer    Maximum-Flux-Residual          L2-NORM 
          0                 1           2            53    1     1      -0.1161144861E+00      53    1    1        -0.1618578870E-01      0.1506813561E+00
          0                 2           2            53    1     1       0.1149481796E-01      53    1    1         0.1616575944E-02      0.1499171378E-01
          0                 3           2            53    1     1      -0.1025247133E-02      53    1    1        -0.1455114728E-03      0.1348568966E-02
          0                 4           1            53    1     1       0.8137607750E-04      53    1    1         0.1165531585E-04      0.1082983389E-03
          0                 5           1            53    1     1      -0.5668626285E-05      53    1    1        -0.8193583767E-06      0.7648384020E-05
          0                 6           1            53    1     1       0.3403730332E-06      53    1    1         0.4964987887E-07      0.4661389645E-06

    ------------------------------------------------
       NWT REQUIRED            6 OUTER ITERATIONS 
       AND A TOTAL OF          9 INNER ITERATIONS.
    ------------------------------------------------

 NO OUTPUT CONTROL FOR STRESS PERIOD    3   TIME STEP    6
 
 SOLVING FOR HEAD 
                                                   Max.-Head-Change                         Max.-Flux-Residual
  Residual-Control   Outer-Iter.   Inner-Iter.     Column Row Layer    Maximum-Head-Change  Column Row Layer    Maximum-Flux-Residual          L2-NORM 
          0                 1           2            53    1     1      -0.1172715416E+00      53    1    1        -0.1497595910E-01      0.1442812389E+00
          0                 2           2            53    1     1       0.1160902459E-01      53    1    1         0.1495566477E-02      0.1434586621E-01
          0                 3           2            53    1     1      -0.1035435993E-02      53    1    1        -0.1346208621E-03      0.1290363926E-02
          0                 4           1            53    1     1       0.8218471275E-04      53    1    1         0.1078297575E-04      0.1036725274E-03
          0                 5           1            53    1     1      -0.5724896017E-05      53    1    1        -0.7580337282E-06      0.7328356852E-05
          0                 6           1            53    1     1       0.3437475229E-06      53    1    1         0.4593385050E-07      0.4471984822E-06

    ------------------------------------------------
       NWT REQUIRED            6 OUTER ITERATIONS 
       AND A TOTAL OF          9 INNER ITERATIONS.
    ------------------------------------------------

 NO OUTPUT CONTROL FOR STRESS PERIOD    3   TIME STEP    7
 
 SOLVING FOR HEAD 
                                                   Max.-Head-Change                         Max.-Flux-Residual
  Residual-Control   Outer-Iter.   Inner-Iter.     Column Row Layer    Maximum-Head-Change  Column Row Layer    Maximum-Flux-Residual          L2-NORM 
          0                 1           2            53    1     1      -0.1180832475E+00      53    1    1        -0.1375021393E-01      0.1400532917E+00
          0                 2           2            53    1     1       0.1168936346E-01      53    1    1         0.1373085347E-02      0.1392192495E-01
          0                 3           2            53    1     1      -0.1042602496E-02      53    1    1        -0.1235966370E-03      0.1252261359E-02
          0                 4           1            53    1     1       0.8275344830E-04      53    1    1         0.9899942439E-05      0.1006503821E-03
          0                 5           1            53    1     1      -0.5764431303E-05      53    1    1        -0.6959572971E-06      0.7119774929E-05
          0                 6           1            53    1     1       0.3461156458E-06      53    1    1         0.4217225502E-07      0.4349078972E-06

    ------------------------------------------------
       NWT REQUIRED            6 OUTER ITERATIONS 
       AND A TOTAL OF          9 INNER ITERATIONS.
    ------------------------------------------------

 NO OUTPUT CONTROL FOR STRESS PERIOD    3   TIME STEP    8
 
 SOLVING FOR HEAD 
                                                   Max.-Head-Change                         Max.-Flux-Residual
  Residual-Control   Outer-Iter.   Inner-Iter.     Column Row Layer    Maximum-Head-Change  Column Row Layer    Maximum-Flux-Residual          L2-NORM 
          0                 1           2            59    1     1      -0.1255369328E+00      53    1    1        -0.1258671696E-01      0.1371676495E+00
          0                 2           2            59    1     1       0.1243581344E-01      53    1    1         0.1256903928E-02      0.1363153807E-01
          0                 3           2            59    1     1      -0.1109031961E-02      53    1    1        -0.1131386570E-03      0.1226076264E-02
          0                 4           1            59    1     1       0.8802255741E-04      53    1    1         0.9062271156E-05      0.9857235809E-04
          0                 5           1            59    1     1      -0.6131135080E-05      53    1    1        -0.6370697285E-06      0.6976769002E-05
          0                 6           1            59    1     1       0.3681131401E-06      53    1    1         0.3860389874E-07      0.4265503518E-06

    ------------------------------------------------
       NWT REQUIRED            6 OUTER ITERATIONS 
       AND A TOTAL OF          9 INNER ITERATIONS.
    ------------------------------------------------

 NO OUTPUT CONTROL FOR STRESS PERIOD    3   TIME STEP    9
 
 SOLVING FOR HEAD 
                                                   Max.-Head-Change                         Max.-Flux-Residual
  Residual-Control   Outer-Iter.   Inner-Iter.     Column Row Layer    Maximum-Head-Change  Column Row Layer    Maximum-Flux-Residual          L2-NORM 
          0                 1           2            59    1     1      -0.1348149896E+00      59    1    1        -0.1216389076E-01      0.1351480148E+00
          0                 2           2            59    1     1       0.1335409025E-01      59    1    1         0.1215945099E-02      0.1342492716E-01
          0                 3           2            59    1     1      -0.1190910502E-02      59    1    1        -0.1094394414E-03      0.1207455442E-02
          0                 4           1            59    1     1       0.9451940888E-04      59    1    1         0.8766066642E-05      0.9711972534E-04
          0                 5           1            59    1     1      -0.6583370258E-05      59    1    1        -0.6162461972E-06      0.6880014699E-05
          0                 6           1            59    1     1       0.3952448209E-06      59    1    1         0.3734208676E-07      0.4211794041E-06

    ------------------------------------------------
       NWT REQUIRED            6 OUTER ITERATIONS 
       AND A TOTAL OF          9 INNER ITERATIONS.
    ------------------------------------------------

 NO OUTPUT CONTROL FOR STRESS PERIOD    3   TIME STEP   10
 
 SOLVING FOR HEAD 
                                                   Max.-Head-Change                         Max.-Flux-Residual
  Residual-Control   Outer-Iter.   Inner-Iter.     Column Row Layer    Maximum-Head-Change  Column Row Layer    Maximum-Flux-Residual          L2-NORM 
          0                 1           2            59    1     1      -0.1445133778E+00      59    1    1        -0.1187542285E-01      0.1337038160E+00
          0                 2           2            59    1     1       0.1431270785E-01      59    1    1         0.1187032607E-02      0.1327558430E-01
          0                 3           2            59    1     1      -0.1276378442E-02      59    1    1        -0.1068379778E-03      0.1194039174E-02
          0                 4           1            59    1     1       0.1013003961E-03      59    1    1         0.8557684062E-05      0.9606512933E-04
          0                 5           1            59    1     1      -0.7055249964E-05      59    1    1        -0.6015971348E-06      0.6808606357E-05
          0                 6           1            59    1     1       0.4235455904E-06      59    1    1         0.3645439683E-07      0.4171368655E-06

    ------------------------------------------------
       NWT REQUIRED            6 OUTER ITERATIONS 
       AND A TOTAL OF          9 INNER ITERATIONS.
    ------------------------------------------------

 NO OUTPUT CONTROL FOR STRESS PERIOD    3   TIME STEP   11
 
 SOLVING FOR HEAD 
                                                   Max.-Head-Change                         Max.-Flux-Residual
  Residual-Control   Outer-Iter.   Inner-Iter.     Column Row Layer    Maximum-Head-Change  Column Row Layer    Maximum-Flux-Residual          L2-NORM 
          0                 1           2            59    1     1      -0.1547532517E+00      59    1    1        -0.1157263954E-01      0.1326264471E+00
          0                 2           2            59    1     1       0.1532141870E-01      59    1    1         0.1156704999E-02      0.1316002492E-01
          0                 3           2            46    7     1      -0.1366136590E-02      59    1    1        -0.1041090374E-03      0.1183565822E-02
          0                 4           2            46    7     1       0.1084341409E-03      59    1    1         0.8339090920E-05      0.9530384887E-04
          0                 5           1            46    7     1      -0.7553592081E-05      59    1    1        -0.5862302750E-06      0.6767825000E-05
          0                 6           1            46    7     1       0.4534479946E-06      62    4    1        -0.3632848689E-07      0.4155745214E-06

    ------------------------------------------------
       NWT REQUIRED            6 OUTER ITERATIONS 
       AND A TOTAL OF         10 INNER ITERATIONS.
    ------------------------------------------------

 NO OUTPUT CONTROL FOR STRESS PERIOD    3   TIME STEP   12
 
 SOLVING FOR HEAD 
                                                   Max.-Head-Change                         Max.-Flux-Residual
  Residual-Control   Outer-Iter.   Inner-Iter.     Column Row Layer    Maximum-Head-Change  Column Row Layer    Maximum-Flux-Residual          L2-NORM 
          0                 1           2            59    1     1      -0.1656955331E+00      59    1    1        -0.1126640821E-01      0.1317992709E+00
          0                 2           2            59    1     1       0.1640269374E-01      59    1    1         0.1126051841E-02      0.1307206279E-01
          0                 3           2            46    7     1      -0.1462858843E-02      59    1    1        -0.1013505709E-03      0.1175646213E-02
          0                 4           2            46    7     1       0.1161110448E-03      59    1    1         0.8118134955E-05      0.9471557162E-04
          0                 5           1            46    7     1      -0.8088302048E-05      59    1    1        -0.5706973116E-06      0.6733288311E-05
          0                 6           1            46    7     1       0.4854877837E-06      62    4    1        -0.3657068604E-07      0.4140443139E-06

    ------------------------------------------------
       NWT REQUIRED            6 OUTER ITERATIONS 
       AND A TOTAL OF         10 INNER ITERATIONS.
    ------------------------------------------------

 NO OUTPUT CONTROL FOR STRESS PERIOD    3   TIME STEP   13
 
 SOLVING FOR HEAD 
                                                   Max.-Head-Change                         Max.-Flux-Residual
  Residual-Control   Outer-Iter.   Inner-Iter.     Column Row Layer    Maximum-Head-Change  Column Row Layer    Maximum-Flux-Residual          L2-NORM 
          0                 1           2            59    1     1      -0.1775193546E+00      59    1    1        -0.1096652163E-01      0.1311480506E+00
          0                 2           2            46    7     1       0.1757483019E-01      59    1    1         0.1096052347E-02      0.1300567129E-01
          0                 3           2            46    7     1      -0.1567429870E-02      59    1    1        -0.9865075280E-04      0.1169624300E-02
          0                 4           2            46    7     1       0.1244109917E-03      59    1    1         0.7901878107E-05      0.9424729331E-04
          0                 5           1            46    7     1      -0.8666396383E-05      59    1    1        -0.5554946796E-06      0.6703325204E-05
          0                 6           1            46    7     1       0.5201102885E-06      62    4    1        -0.3660967707E-07      0.4124631175E-06

    ------------------------------------------------
       NWT REQUIRED            6 OUTER ITERATIONS 
       AND A TOTAL OF         10 INNER ITERATIONS.
    ------------------------------------------------

 NO OUTPUT CONTROL FOR STRESS PERIOD    3   TIME STEP   14
 
 SOLVING FOR HEAD 
                                                   Max.-Head-Change                         Max.-Flux-Residual
  Residual-Control   Outer-Iter.   Inner-Iter.     Column Row Layer    Maximum-Head-Change  Column Row Layer    Maximum-Flux-Residual          L2-NORM 
          0                 1           2            59    1     1      -0.1904154401E+00      59    1    1        -0.1068111212E-01      0.1305793701E+00
          0                 2           2            46    7     1       0.1885339262E-01      59    1    1         0.1067517169E-02      0.1294867295E-01
          0                 3           2            46    7     1      -0.1681457038E-02      59    1    1        -0.9608256754E-04      0.1164751444E-02
          0                 4           2            46    7     1       0.1334614240E-03      59    1    1         0.7696166239E-05      0.9390019151E-04
          0                 5           1            46    7     1      -0.9296729931E-05      59    1    1        -0.5410333426E-06      0.6683925215E-05
          0                 6           1            46    7     1       0.5578320372E-06      62    4    1        -0.3692668571E-07      0.4115886511E-06

    ------------------------------------------------
       NWT REQUIRED            6 OUTER ITERATIONS 
       AND A TOTAL OF         10 INNER ITERATIONS.
    ------------------------------------------------

 NO OUTPUT CONTROL FOR STRESS PERIOD    3   TIME STEP   15
 
 SOLVING FOR HEAD 
                                                   Max.-Head-Change                         Max.-Flux-Residual
  Residual-Control   Outer-Iter.   Inner-Iter.     Column Row Layer    Maximum-Head-Change  Column Row Layer    Maximum-Flux-Residual          L2-NORM 
          0                 1           2            59    1     1      -0.2045684639E+00      59    1    1        -0.1041563595E-01      0.1300160480E+00
          0                 2           2            46    7     1       0.2025513841E-01      59    1    1         0.1040987771E-02      0.1288819063E-01
          0                 3           2            46    7     1      -0.1806437733E-02      59    1    1        -0.9369478902E-04      0.1159520428E-02
          0                 4           2            46    7     1       0.1433787903E-03      59    1    1         0.7504905795E-05      0.9355417171E-04
          0                 5           1            46    7     1      -0.9987230191E-05      59    1    1        -0.5275879165E-06      0.6668903491E-05
          0                 6           1            46    7     1       0.5990986893E-06      62    4    1        -0.3717183361E-07      0.4113038065E-06

    ------------------------------------------------
       NWT REQUIRED            6 OUTER ITERATIONS 
       AND A TOTAL OF         10 INNER ITERATIONS.
    ------------------------------------------------

 NO OUTPUT CONTROL FOR STRESS PERIOD    3   TIME STEP   16
 
 SOLVING FOR HEAD 
                                                   Max.-Head-Change                         Max.-Flux-Residual
  Residual-Control   Outer-Iter.   Inner-Iter.     Column Row Layer    Maximum-Head-Change  Column Row Layer    Maximum-Flux-Residual          L2-NORM 
          0                 1           2            59    1     1      -0.2201500011E+00      59    1    1        -0.1017268373E-01      0.1295010048E+00
          0                 2           2            46    7     1       0.2179677155E-01      59    1    1         0.1016718888E-02      0.1283494282E-01
          0                 3           2            46    7     1      -0.1943907748E-02      59    1    1        -0.9151038679E-04      0.1154762999E-02
          0                 4           2            46    7     1       0.1542885862E-03      59    1    1         0.7329936278E-05      0.9319841320E-04
          0                 5           1            46    7     1      -0.1074687340E-04      59    1    1        -0.5152877254E-06      0.6647777277E-05
          0                 6           1            46    7     1       0.6444510133E-06      62    4    1        -0.3732331066E-07      0.4101575190E-06

    ------------------------------------------------
       NWT REQUIRED            6 OUTER ITERATIONS 
       AND A TOTAL OF         10 INNER ITERATIONS.
    ------------------------------------------------

 NO OUTPUT CONTROL FOR STRESS PERIOD    3   TIME STEP   17
 
 SOLVING FOR HEAD 
                                                   Max.-Head-Change                         Max.-Flux-Residual
  Residual-Control   Outer-Iter.   Inner-Iter.     Column Row Layer    Maximum-Head-Change  Column Row Layer    Maximum-Flux-Residual          L2-NORM 
          0                 1           2            59    1     1      -0.2373171207E+00      59    1    1        -0.9952431987E-02      0.1290175195E+00
          0                 2           2            46    7     1       0.2349151572E-01      59    1    1         0.9947245496E-03      0.1278008853E-01
          0                 3           2            46    7     1      -0.2095024888E-02      59    1    1        -0.8953066012E-04      0.1149905336E-02
          0                 4           2            46    7     1       0.1662809498E-03      59    1    1         0.7171361471E-05      0.9283552037E-04
          0                 5           1            46    7     1      -0.1158177475E-04      59    1    1        -0.5041400577E-06      0.6626058628E-05
          0                 6           1            46    6     1       0.6942477441E-06      62    4    1        -0.3738717069E-07      0.4088765116E-06

    ------------------------------------------------
       NWT REQUIRED            6 OUTER ITERATIONS 
       AND A TOTAL OF         10 INNER ITERATIONS.
    ------------------------------------------------

 NO OUTPUT CONTROL FOR STRESS PERIOD    3   TIME STEP   18
 
 SOLVING FOR HEAD 
                                                   Max.-Head-Change                         Max.-Flux-Residual
  Residual-Control   Outer-Iter.   Inner-Iter.     Column Row Layer    Maximum-Head-Change  Column Row Layer    Maximum-Flux-Residual          L2-NORM 
          0                 1           2            59    1     1      -0.2561672255E+00      59    1    1        -0.9753349956E-02      0.1285183985E+00
          0                 2           2            46    7     1       0.2535322308E-01      59    1    1         0.9748436982E-03      0.1271964558E-01
          0                 3           2            46    7     1      -0.2260755633E-02      59    1    1        -0.8774172097E-04      0.1144697909E-02
          0                 4           2            46    7     1       0.1794111659E-03      59    1    1         0.7028064152E-05      0.9250799011E-04
          0                 5           1            46    7     1      -0.1249411976E-04      59    1    1        -0.4940664233E-06      0.6614476487E-05
          0                 6           1            55    5     1       0.7501461585E-06      62    4    1        -0.3687964423E-07      0.4086456757E-06

    ------------------------------------------------
       NWT REQUIRED            6 OUTER ITERATIONS 
       AND A TOTAL OF         10 INNER ITERATIONS.
    ------------------------------------------------

 NO OUTPUT CONTROL FOR STRESS PERIOD    3   TIME STEP   19
 
 SOLVING FOR HEAD 
                                                   Max.-Head-Change                         Max.-Flux-Residual
  Residual-Control   Outer-Iter.   Inner-Iter.     Column Row Layer    Maximum-Head-Change  Column Row Layer    Maximum-Flux-Residual          L2-NORM 
          0                 1           3            55    5     1      -0.2868502313E+00      59    1    1        -0.9572907439E-02      0.1280126478E+00
          0                 2           2            55    5     1       0.2835557575E-01      59    1    1         0.9568125411E-03      0.1266645843E-01
          0                 3           2            55    5     1      -0.2529257523E-02      59    1    1        -0.8611929949E-04      0.1139985323E-02
          0                 4           2            55    5     1       0.2007335225E-03      59    1    1         0.6898097045E-05      0.9222736459E-04
          0                 5           1            55    5     1      -0.1398255363E-04      59    1    1        -0.4849299806E-06      0.6608079064E-05
          0                 6           1            55    5     1       0.8397518173E-06      61    4    1        -0.3942433580E-07      0.4087233929E-06

    ------------------------------------------------
       NWT REQUIRED            6 OUTER ITERATIONS 
       AND A TOTAL OF         11 INNER ITERATIONS.
    ------------------------------------------------

 NO OUTPUT CONTROL FOR STRESS PERIOD    3   TIME STEP   20
 
 SOLVING FOR HEAD 
                                                   Max.-Head-Change                         Max.-Flux-Residual
  Residual-Control   Outer-Iter.   Inner-Iter.     Column Row Layer    Maximum-Head-Change  Column Row Layer    Maximum-Flux-Residual          L2-NORM 
          0                 1           3            55    5     1      -0.3205039962E+00      55    5    1        -0.9742623808E-02      0.1274869897E+00
          0                 2           2            55    5     1       0.3166712394E-01      55    5    1         0.9511250419E-03      0.1260619952E-01
          0                 3           2            55    5     1      -0.2824714726E-02      55    5    1        -0.8581969582E-04      0.1134921718E-02
          0                 4           2            55    5     1       0.2241760797E-03      55    5    1         0.6872414708E-05      0.9193288670E-04
          0                 5           1            55    5     1      -0.1561482045E-04      55    5    1        -0.4831350680E-06      0.6601030316E-05
          0                 6           1            55    5     1       0.9374084923E-06      61    4    1        -0.3816848704E-07      0.4086007722E-06

    ------------------------------------------------
       NWT REQUIRED            6 OUTER ITERATIONS 
       AND A TOTAL OF         11 INNER ITERATIONS.
    ------------------------------------------------

 NO OUTPUT CONTROL FOR STRESS PERIOD    3   TIME STEP   21
 
 SOLVING FOR HEAD 
                                                   Max.-Head-Change                         Max.-Flux-Residual
  Residual-Control   Outer-Iter.   Inner-Iter.     Column Row Layer    Maximum-Head-Change  Column Row Layer    Maximum-Flux-Residual          L2-NORM 
          0                 1           3            55    5     1      -0.3574561065E+00      55    5    1        -0.9899515159E-02      0.1269510722E+00
          0                 2           2            55    5     1       0.3529874196E-01      55    5    1         0.9607890565E-03      0.1255286813E-01
          0                 3           2            55    5     1      -0.3148716659E-02      55    5    1        -0.8674484518E-04      0.1130635064E-02
          0                 4           2            55    5     1       0.2498794049E-03      55    5    1         0.6946075619E-05      0.9167136682E-04
          0                 5           1            55    5     1      -0.1740424473E-04      61    4    1         0.4938880842E-06      0.6591402587E-05
          0                 6           1            55    5     1       0.1044441094E-05      61    4    1        -0.4148930799E-07      0.4076301686E-06
          0                 7           1            55    5     1      -0.5263776631E-07      61    4    1         0.2703128388E-08      0.2129954056E-07

    ------------------------------------------------
       NWT REQUIRED            7 OUTER ITERATIONS 
       AND A TOTAL OF         12 INNER ITERATIONS.
    ------------------------------------------------

 NO OUTPUT CONTROL FOR STRESS PERIOD    3   TIME STEP   22
 
 SOLVING FOR HEAD 
                                                   Max.-Head-Change                         Max.-Flux-Residual
  Residual-Control   Outer-Iter.   Inner-Iter.     Column Row Layer    Maximum-Head-Change  Column Row Layer    Maximum-Flux-Residual          L2-NORM 
          0                 1           3            55    5     1      -0.3980552419E+00      55    5    1        -0.1003267176E-01      0.1264457534E+00
          0                 2           2            55    5     1       0.3928385121E-01      55    5    1         0.9666882135E-03      0.1250034318E-01
          0                 3           2            55    5     1      -0.3504290528E-02      55    5    1        -0.8734330130E-04      0.1125813135E-02
          0                 4           2            55    5     1       0.2780858321E-03      55    5    1         0.6993470670E-05      0.9129317211E-04
          0                 5           1            50    3     1      -0.1936780567E-04      61    4    1         0.5001890671E-06      0.6567327883E-05
          0                 6           1            55    5     1       0.1161779295E-05      61    4    1        -0.4164634149E-07      0.4051676960E-06
          0                 7           1            55    5     1      -0.5848271762E-07      61    4    1         0.2699213297E-08      0.2111678310E-07

    ------------------------------------------------
       NWT REQUIRED            7 OUTER ITERATIONS 
       AND A TOTAL OF         12 INNER ITERATIONS.
    ------------------------------------------------

 NO OUTPUT CONTROL FOR STRESS PERIOD    3   TIME STEP   23
 
 SOLVING FOR HEAD 
                                                   Max.-Head-Change                         Max.-Flux-Residual
  Residual-Control   Outer-Iter.   Inner-Iter.     Column Row Layer    Maximum-Head-Change  Column Row Layer    Maximum-Flux-Residual          L2-NORM 
          0                 1           3            55    5     1      -0.4427882076E+00      55    5    1        -0.1016062958E-01      0.1259293832E+00
          0                 2           2            55    5     1       0.4365465223E-01      55    6    1         0.9730490419E-03      0.1242992506E-01
          0                 3           2            50    3     1      -0.3894533881E-02      55    5    1        -0.8774566295E-04      0.1119618626E-02
          0                 4           2            50    3     1       0.3090741318E-03      55    5    1         0.7025032979E-05      0.9095452346E-04
          0                 5           1            50    3     1      -0.2152396567E-04      60    4    1         0.5116396018E-06      0.6564929733E-05
          0                 6           1            50    3     1       0.1287404268E-05      60    4    1        -0.4329642067E-07      0.4048910117E-06
          0                 7           1            55    5     1      -0.6456266847E-07      60    4    1         0.2840650382E-08      0.2110340671E-07

    ------------------------------------------------
       NWT REQUIRED            7 OUTER ITERATIONS 
       AND A TOTAL OF         12 INNER ITERATIONS.
    ------------------------------------------------

 NO OUTPUT CONTROL FOR STRESS PERIOD    3   TIME STEP   24
 
 SOLVING FOR HEAD 
                                                   Max.-Head-Change                         Max.-Flux-Residual
  Residual-Control   Outer-Iter.   Inner-Iter.     Column Row Layer    Maximum-Head-Change  Column Row Layer    Maximum-Flux-Residual          L2-NORM 
          0                 1           3            55    5     1      -0.4920629877E+00      55    5    1        -0.1027811875E-01      0.1254439866E+00
          0                 2           2            55    5     1       0.4847124587E-01      55    6    1         0.9843350782E-03      0.1237908197E-01
          0                 3           2            50    3     1      -0.4324571469E-02      55    6    1        -0.8854763164E-04      0.1115002828E-02
          0                 4           2            50    3     1       0.3431868615E-03      55    6    1         0.7092459668E-05      0.9057979368E-04
          0                 5           1            50    3     1      -0.2389650550E-04      60    4    1         0.5178928859E-06      0.6539138175E-05
          0                 6           1            50    3     1       0.1426931526E-05      60    4    1        -0.4361269745E-07      0.4014410461E-06
          0                 7           1            55    5     1      -0.7132574307E-07      60    4    1         0.2852079461E-08      0.2082729063E-07

    ------------------------------------------------
       NWT REQUIRED            7 OUTER ITERATIONS 
       AND A TOTAL OF         12 INNER ITERATIONS.
    ------------------------------------------------

 NO OUTPUT CONTROL FOR STRESS PERIOD    3   TIME STEP   25
 
 SOLVING FOR HEAD 
                                                   Max.-Head-Change                         Max.-Flux-Residual
  Residual-Control   Outer-Iter.   Inner-Iter.     Column Row Layer    Maximum-Head-Change  Column Row Layer    Maximum-Flux-Residual          L2-NORM 
          0                 1           3            55    5     1      -0.5463126754E+00      55    5    1        -0.1038106221E-01      0.1249592000E+00
          0                 2           2            55    5     1       0.5376235323E-01      55    6    1         0.9948708820E-03      0.1232528059E-01
          0                 3           2            50    3     1      -0.4795308718E-02      55    6    1        -0.8948301741E-04      0.1110170642E-02
          0                 4           2            50    3     1       0.3804598703E-03      55    6    1         0.7167063302E-05      0.9026048063E-04
          0                 5           1            50    3     1      -0.2648497381E-04      55    6    1        -0.5037917425E-06      0.6526801721E-05
          0                 6           1            50    3     1       0.1579733360E-05      44    4    1        -0.4229559636E-07      0.3990813521E-06
          0                 7           1            50    3     1      -0.7862117793E-07      60    4    1         0.2773635543E-08      0.2064098110E-07

    ------------------------------------------------
       NWT REQUIRED            7 OUTER ITERATIONS 
       AND A TOTAL OF         12 INNER ITERATIONS.
    ------------------------------------------------

 NO OUTPUT CONTROL FOR STRESS PERIOD    3   TIME STEP   26
 
 SOLVING FOR HEAD 
                                                   Max.-Head-Change                         Max.-Flux-Residual
  Residual-Control   Outer-Iter.   Inner-Iter.     Column Row Layer    Maximum-Head-Change  Column Row Layer    Maximum-Flux-Residual          L2-NORM 
          0                 1           3            55    5     1      -0.6059793920E+00      55    5    1        -0.1047858037E-01      0.1244589652E+00
          0                 2           3            50    3     1       0.5953815397E-01      55    6    1         0.1004788532E-02      0.1225841237E-01
          0                 3           2            50    3     1      -0.5311778969E-02      55    6    1        -0.9038059334E-04      0.1104258762E-02
          0                 4           2            50    3     1       0.4213892684E-03      55    6    1         0.7238326988E-05      0.8985760249E-04
          0                 5           1            50    3     1      -0.2932385132E-04      59    4    1         0.5178905838E-06      0.6508954677E-05
          0                 6           1            50    3     1       0.1741132026E-05      59    4    1        -0.4143545951E-07      0.3951724606E-06
          0                 7           1            50    3     1      -0.8598876436E-07      44    4    1         0.2629697349E-08      0.2032463774E-07

    ------------------------------------------------
       NWT REQUIRED            7 OUTER ITERATIONS 
       AND A TOTAL OF         13 INNER ITERATIONS.
    ------------------------------------------------

 NO OUTPUT CONTROL FOR STRESS PERIOD    3   TIME STEP   27
 
 SOLVING FOR HEAD 
                                                   Max.-Head-Change                         Max.-Flux-Residual
  Residual-Control   Outer-Iter.   Inner-Iter.     Column Row Layer    Maximum-Head-Change  Column Row Layer    Maximum-Flux-Residual          L2-NORM 
          0                 1           3            55    5     1      -0.6716661851E+00      55    5    1        -0.1056993583E-01      0.1239456777E+00
          0                 2           3            50    3     1       0.6587732962E-01      55    6    1         0.1014187621E-02      0.1220848436E-01
          0                 3           2            50    3     1      -0.5874756880E-02      55    6    1        -0.9121549856E-04      0.1100015961E-02
          0                 4           2            50    3     1       0.4657632415E-03      55    6    1         0.7304269049E-05      0.8959541542E-04
          0                 5           1            50    3     1      -0.3238286985E-04      59    4    1         0.5177832545E-06      0.6501004278E-05
          0                 6           1            50    3     1       0.1911993962E-05      59    4    1        -0.4093874395E-07      0.3911826065E-06
          0                 7           1            50    3     1      -0.9353043220E-07      59    4    1         0.2565723634E-08      0.1999786781E-07

    ------------------------------------------------
       NWT REQUIRED            7 OUTER ITERATIONS 
       AND A TOTAL OF         13 INNER ITERATIONS.
    ------------------------------------------------

 NO OUTPUT CONTROL FOR STRESS PERIOD    3   TIME STEP   28
 
 SOLVING FOR HEAD 
                                                   Max.-Head-Change                         Max.-Flux-Residual
  Residual-Control   Outer-Iter.   Inner-Iter.     Column Row Layer    Maximum-Head-Change  Column Row Layer    Maximum-Flux-Residual          L2-NORM 
          0                 1           3            55    5     1      -0.7438855224E+00      55    5    1        -0.1065209566E-01      0.1234304726E+00
          0                 2           3            50    3     1       0.7273403887E-01      55    6    1         0.1023162933E-02      0.1213623820E-01
          0                 3           2            50    3     1      -0.6478791178E-02      55    6    1        -0.9201135778E-04      0.1093296301E-02
          0                 4           2            50    3     1       0.5129274013E-03      55    6    1         0.7366776191E-05      0.8909763161E-04
          0                 5           1            50    3     1      -0.3559327744E-04      55    6    1        -0.5176554918E-06      0.6474163537E-05
          0                 6           1            50    3     1       0.2080266984E-05      46    4    1        -0.4239504214E-07      0.3861112577E-06
          0                 7           1            55    5     1      -0.1003208208E-06      46    4    1         0.2782821085E-08      0.1968147574E-07

    ------------------------------------------------
       NWT REQUIRED            7 OUTER ITERATIONS 
       AND A TOTAL OF         13 INNER ITERATIONS.
    ------------------------------------------------

 NO OUTPUT CONTROL FOR STRESS PERIOD    3   TIME STEP   29
 
 SOLVING FOR HEAD 
                                                   Max.-Head-Change                         Max.-Flux-Residual
  Residual-Control   Outer-Iter.   Inner-Iter.     Column Row Layer    Maximum-Head-Change  Column Row Layer    Maximum-Flux-Residual          L2-NORM 
          0                 1           3            55    5     1      -0.8230003481E+00      55    5    1        -0.1072919499E-01      0.1228891303E+00
          0                 2           3            50    3     1       0.8029336026E-01      55    6    1         0.1031980798E-02      0.1208630890E-01
          0                 3           2            50    3     1      -0.7151202688E-02      55    6    1        -0.9278974214E-04      0.1089299501E-02
          0                 4           2            50    3     1       0.5659265898E-03      55    6    1         0.7425287241E-05      0.8887307485E-04
          0                 5           1            50    3     1      -0.3923638383E-04      58    4    1         0.5485708776E-06      0.6470333009E-05
          0                 6           1            50    3     1       0.2273010380E-05      58    4    1        -0.4614640581E-07      0.3822657001E-06
          0                 7           1            50    3     1      -0.1079187521E-06      58    4    1         0.2999913207E-08      0.1947125031E-07

    ------------------------------------------------
       NWT REQUIRED            7 OUTER ITERATIONS 
       AND A TOTAL OF         13 INNER ITERATIONS.
    ------------------------------------------------

 NO OUTPUT CONTROL FOR STRESS PERIOD    3   TIME STEP   30



 STREAM LISTING     PERIOD      3   STEP       30

 LAYER ROW COL. STREAM  RCH.   FLOW INTO    STREAM     FLOW OUT OF   OVRLND.    DIRECT     STREAM      STREAM      STREAM     STREAM  STREAMBED   FLOW TO   CHNG. UNSAT. 
                SEG.NO.  NO.   STRM. RCH.    LOSS       STRM. RCH.   RUNOFF     PRECIP       ET         HEAD        DEPTH      WIDTH  CONDCTNC.   WAT. TAB.

   1    4    1     1     1    3.8400E+00  1.4068E-03   3.8386E+00  0.000E+00  0.000E+00  0.000E+00  1.41321E+02  1.471E+00  3.573E+00  7.137E-04  1.415E-03 -8.377E-06
   1    4    2     1     2    3.8386E+00  1.4065E-03   3.8372E+00  0.000E+00  0.000E+00  0.000E+00  1.41021E+02  1.471E+00  3.572E+00  7.136E-04  1.415E-03 -8.330E-06
   1    4    3     1     3    3.8372E+00  1.4061E-03   3.8358E+00  0.000E+00  0.000E+00  0.000E+00  1.40721E+02  1.471E+00  3.572E+00  7.135E-04  1.414E-03 -8.240E-06
   1    4    4     1     4    3.8358E+00  1.4057E-03   3.8344E+00  0.000E+00  0.000E+00  0.000E+00  1.40420E+02  1.470E+00  3.572E+00  7.134E-04  1.414E-03 -8.104E-06
   1    4    5     1     5    3.8344E+00  1.4053E-03   3.8330E+00  0.000E+00  0.000E+00  0.000E+00  1.40120E+02  1.470E+00  3.571E+00  7.133E-04  1.413E-03 -7.919E-06
   1    4    6     1     6    3.8330E+00  1.4049E-03   3.8316E+00  0.000E+00  0.000E+00  0.000E+00  1.39820E+02  1.470E+00  3.571E+00  7.133E-04  1.413E-03 -7.683E-06
   1    4    7     1     7    3.8316E+00  1.4046E-03   3.8302E+00  0.000E+00  0.000E+00  0.000E+00  1.39520E+02  1.469E+00  3.571E+00  7.132E-04  1.412E-03 -7.389E-06
   1    4    8     1     8    3.8302E+00  1.4042E-03   3.8288E+00  0.000E+00  0.000E+00  0.000E+00  1.39219E+02  1.469E+00  3.570E+00  7.131E-04  1.411E-03 -7.025E-06
   1    4    9     1     9    3.8288E+00  1.4038E-03   3.8274E+00  0.000E+00  0.000E+00  0.000E+00  1.38919E+02  1.469E+00  3.570E+00  7.130E-04  1.410E-03 -6.581E-06
   1    4   10     1    10    3.8274E+00  1.4034E-03   3.8259E+00  0.000E+00  0.000E+00  0.000E+00  1.38619E+02  1.469E+00  3.570E+00  7.129E-04  1.409E-03 -6.036E-06
   1    4   11     1    11    3.8259E+00  1.4030E-03   3.8245E+00  0.000E+00  0.000E+00  0.000E+00  1.38318E+02  1.468E+00  3.569E+00  7.128E-04  1.408E-03 -5.373E-06
   1    4   12     1    12    3.8245E+00  1.4027E-03   3.8231E+00  0.000E+00  0.000E+00  0.000E+00  1.38018E+02  1.468E+00  3.569E+00  7.127E-04  1.407E-03 -4.563E-06
   1    4   13     1    13    3.8231E+00  1.4023E-03   3.8217E+00  0.000E+00  0.000E+00  0.000E+00  1.37718E+02  1.468E+00  3.569E+00  7.126E-04  1.406E-03 -3.580E-06
   1    4   14     1    14    3.8217E+00  1.4019E-03   3.8203E+00  0.000E+00  0.000E+00  0.000E+00  1.37418E+02  1.468E+00  3.568E+00  7.125E-04  1.404E-03 -2.389E-06
   1    4   15     1    15    3.8203E+00  1.4015E-03   3.8189E+00  0.000E+00  0.000E+00  0.000E+00  1.37117E+02  1.467E+00  3.568E+00  7.124E-04  1.402E-03 -9.508E-07
   1    4   16     1    16    3.8189E+00  1.4012E-03   3.8175E+00  0.000E+00  0.000E+00  0.000E+00  1.36817E+02  1.467E+00  3.568E+00  7.123E-04  1.400E-03  7.765E-07
   1    4   17     1    17    3.8175E+00  1.4008E-03   3.8161E+00  0.000E+00  0.000E+00  0.000E+00  1.36517E+02  1.467E+00  3.567E+00  7.122E-04  1.398E-03  2.839E-06
   1    4   18     1    18    3.8161E+00  1.4004E-03   3.8147E+00  0.000E+00  0.000E+00  0.000E+00  1.36216E+02  1.466E+00  3.567E+00  7.122E-04  1.395E-03  5.290E-06
   1    4   19     1    19    3.8147E+00  1.4000E-03   3.8133E+00  0.000E+00  0.000E+00  0.000E+00  1.35916E+02  1.466E+00  3.567E+00  7.121E-04  1.392E-03  8.185E-06
   1    4   20     1    20    3.8133E+00  1.3996E-03   3.8119E+00  0.000E+00  0.000E+00  0.000E+00  1.35616E+02  1.466E+00  3.566E+00  7.120E-04  1.388E-03  1.158E-05
   1    4   21     1    21    3.8119E+00  1.3993E-03   3.8105E+00  0.000E+00  0.000E+00  0.000E+00  1.35316E+02  1.466E+00  3.566E+00  7.119E-04  1.384E-03  1.555E-05
   1    4   22     1    22    3.8105E+00  1.3989E-03   3.8091E+00  0.000E+00  0.000E+00  0.000E+00  1.35015E+02  1.465E+00  3.566E+00  7.118E-04  1.379E-03  2.014E-05
   1    4   23     1    23    3.8091E+00  1.3985E-03   3.8077E+00  0.000E+00  0.000E+00  0.000E+00  1.34715E+02  1.465E+00  3.565E+00  7.117E-04  1.373E-03  2.543E-05
   1    4   24     1    24    3.8077E+00  1.3981E-03   3.8063E+00  0.000E+00  0.000E+00  0.000E+00  1.34415E+02  1.465E+00  3.565E+00  7.116E-04  1.367E-03  3.148E-05
   1    4   25     1    25    3.8063E+00  1.3978E-03   3.8049E+00  0.000E+00  0.000E+00  0.000E+00  1.34114E+02  1.464E+00  3.565E+00  7.115E-04  1.359E-03  3.835E-05
   1    4   26     1    26    3.8049E+00  1.3974E-03   3.8035E+00  0.000E+00  0.000E+00  0.000E+00  1.33814E+02  1.464E+00  3.564E+00  7.114E-04  1.351E-03  4.610E-05
   1    4   27     1    27    3.8035E+00  1.3970E-03   3.8021E+00  0.000E+00  0.000E+00  0.000E+00  1.33514E+02  1.464E+00  3.564E+00  7.113E-04  1.342E-03  5.477E-05
   1    4   28     1    28    3.8021E+00  1.3966E-03   3.8008E+00  0.000E+00  0.000E+00  0.000E+00  1.33214E+02  1.464E+00  3.564E+00  7.112E-04  1.332E-03  6.439E-05
   1    4   29     1    29    3.8008E+00  1.3962E-03   3.7994E+00  0.000E+00  0.000E+00  0.000E+00  1.32913E+02  1.463E+00  3.563E+00  7.112E-04  1.321E-03  7.500E-05
   1    4   30     1    30    3.7994E+00  1.3959E-03   3.7980E+00  0.000E+00  0.000E+00  0.000E+00  1.32613E+02  1.463E+00  3.563E+00  7.111E-04  1.309E-03  8.658E-05
   1    4   31     1    31    3.7980E+00  1.3955E-03   3.7966E+00  0.000E+00  0.000E+00  0.000E+00  1.32313E+02  1.463E+00  3.563E+00  7.110E-04  1.296E-03  9.913E-05
   1    4   32     1    32    3.7966E+00  1.3951E-03   3.7952E+00  0.000E+00  0.000E+00  0.000E+00  1.32013E+02  1.463E+00  3.562E+00  7.109E-04  1.283E-03  1.126E-04
   1    4   33     1    33    3.7952E+00  1.3947E-03   3.7938E+00  0.000E+00  0.000E+00  0.000E+00  1.31712E+02  1.462E+00  3.562E+00  7.108E-04  1.268E-03  1.269E-04
   1    4   34     1    34    3.7938E+00  1.3944E-03   3.7924E+00  0.000E+00  0.000E+00  0.000E+00  1.31412E+02  1.462E+00  3.562E+00  7.107E-04  1.252E-03  1.419E-04
   1    4   35     1    35    3.7924E+00  1.3940E-03   3.7910E+00  0.000E+00  0.000E+00  0.000E+00  1.31112E+02  1.462E+00  3.561E+00  7.106E-04  1.236E-03  1.576E-04
   1    4   36     1    36    3.7910E+00  1.3936E-03   3.7896E+00  0.000E+00  0.000E+00  0.000E+00  1.30811E+02  1.461E+00  3.561E+00  7.105E-04  1.220E-03  1.736E-04
   1    4   37     1    37    3.7896E+00  1.3932E-03   3.7882E+00  0.000E+00  0.000E+00  0.000E+00  1.30511E+02  1.461E+00  3.561E+00  7.104E-04  1.203E-03  1.900E-04
   1    4   38     1    38    3.7882E+00  1.3928E-03   3.7868E+00  0.000E+00  0.000E+00  0.000E+00  1.30211E+02  1.461E+00  3.560E+00  7.103E-04  1.187E-03  2.063E-04
   1    4   39     1    39    3.7868E+00  1.3925E-03   3.7854E+00  0.000E+00  0.000E+00  0.000E+00  1.29911E+02  1.461E+00  3.560E+00  7.102E-04  1.170E-03  2.225E-04
   1    4   40     1    40    3.7854E+00  1.3921E-03   3.7840E+00  0.000E+00  0.000E+00  0.000E+00  1.29610E+02  1.460E+00  3.560E+00  7.102E-04  1.154E-03  2.382E-04
   1    4   41     1    41    3.7840E+00  1.3917E-03   3.7826E+00  0.000E+00  0.000E+00  0.000E+00  1.29310E+02  1.460E+00  3.559E+00  7.101E-04  1.138E-03  2.534E-04
   1    4   42     1    42    3.7826E+00  1.3913E-03   3.7812E+00  0.000E+00  0.000E+00  0.000E+00  1.29010E+02  1.460E+00  3.559E+00  7.100E-04  1.124E-03  2.678E-04
   1    4   43     1    43    3.7812E+00  1.3910E-03   3.7798E+00  0.000E+00  0.000E+00  0.000E+00  1.28709E+02  1.459E+00  3.559E+00  7.099E-04  1.110E-03  2.814E-04
   1    4   44     1    44    3.7798E+00  1.3906E-03   3.7785E+00  0.000E+00  0.000E+00  0.000E+00  1.28409E+02  1.459E+00  3.558E+00  7.098E-04  1.096E-03  2.942E-04
   1    4   45     1    45    3.7785E+00  1.3902E-03   3.7771E+00  0.000E+00  0.000E+00  0.000E+00  1.28109E+02  1.459E+00  3.558E+00  7.097E-04  1.084E-03  3.063E-04
   1    4   46     1    46    3.7771E+00  1.3898E-03   3.7757E+00  0.000E+00  0.000E+00  0.000E+00  1.27809E+02  1.459E+00  3.558E+00  7.096E-04  1.073E-03  3.168E-04
   1    4   47     1    47    3.7757E+00  1.3895E-03   3.7743E+00  0.000E+00  0.000E+00  0.000E+00  1.27508E+02  1.458E+00  3.557E+00  7.095E-04  0.000E+00  1.389E-03
   1    4   48     1    48    3.7743E+00  1.3891E-03   3.7729E+00  0.000E+00  0.000E+00  0.000E+00  1.27208E+02  1.458E+00  3.557E+00  7.094E-04  0.000E+00  1.389E-03
   1    4   49     1    49    3.7729E+00  1.3887E-03   3.7715E+00  0.000E+00  0.000E+00  0.000E+00  1.26908E+02  1.458E+00  3.557E+00  7.093E-04  0.000E+00  1.389E-03
   1    4   50     1    50    3.7715E+00  1.3883E-03   3.7701E+00  0.000E+00  0.000E+00  0.000E+00  1.26607E+02  1.457E+00  3.556E+00  7.092E-04  0.000E+00  1.388E-03
   1    4   51     1    51    3.7701E+00  1.3880E-03   3.7687E+00  0.000E+00  0.000E+00  0.000E+00  1.26307E+02  1.457E+00  3.556E+00  7.092E-04  0.000E+00  1.388E-03
   1    4   52     1    52    3.7687E+00  1.3876E-03   3.7673E+00  0.000E+00  0.000E+00  0.000E+00  1.26007E+02  1.457E+00  3.556E+00  7.091E-04  0.000E+00  1.388E-03
   1    4   53     1    53    3.7673E+00  1.3872E-03   3.7660E+00  0.000E+00  0.000E+00  0.000E+00  1.25707E+02  1.457E+00  3.555E+00  7.090E-04  0.000E+00  1.387E-03
   1    4   54     1    54    3.7660E+00  1.3868E-03   3.7646E+00  0.000E+00  0.000E+00  0.000E+00  1.25406E+02  1.456E+00  3.555E+00  7.089E-04  0.000E+00  1.387E-03
   1    4   55     1    55    3.7646E+00  1.3865E-03   3.7632E+00  0.000E+00  0.000E+00  0.000E+00  1.25106E+02  1.456E+00  3.555E+00  7.088E-04  0.000E+00  1.386E-03
   1    4   56     1    56    3.7632E+00  1.3861E-03   3.7618E+00  0.000E+00  0.000E+00  0.000E+00  1.24806E+02  1.456E+00  3.554E+00  7.087E-04  0.000E+00  1.386E-03
   1    4   57     1    57    3.7618E+00  1.3857E-03   3.7604E+00  0.000E+00  0.000E+00  0.000E+00  1.24506E+02  1.456E+00  3.554E+00  7.086E-04  0.000E+00  1.386E-03
   1    4   58     1    58    3.7604E+00  1.3853E-03   3.7590E+00  0.000E+00  0.000E+00  0.000E+00  1.24205E+02  1.455E+00  3.554E+00  7.085E-04  9.847E-04  4.006E-04
   1    4   59     1    59    3.7590E+00  1.3850E-03   3.7576E+00  0.000E+00  0.000E+00  0.000E+00  1.23905E+02  1.455E+00  3.553E+00  7.084E-04  1.062E-03  3.228E-04
   1    4   60     1    60    3.7576E+00  1.3846E-03   3.7563E+00  0.000E+00  0.000E+00  0.000E+00  1.23605E+02  1.455E+00  3.553E+00  7.083E-04  1.073E-03  3.116E-04
   1    4   61     1    61    3.7563E+00  1.3842E-03   3.7549E+00  0.000E+00  0.000E+00  0.000E+00  1.23304E+02  1.454E+00  3.553E+00  7.082E-04  1.084E-03  3.004E-04
   1    4   62     1    62    3.7549E+00  1.3838E-03   3.7535E+00  0.000E+00  0.000E+00  0.000E+00  1.23004E+02  1.454E+00  3.552E+00  7.082E-04  1.095E-03  2.888E-04
   1    4   63     1    63    3.7535E+00  1.3835E-03   3.7521E+00  0.000E+00  0.000E+00  0.000E+00  1.22704E+02  1.454E+00  3.552E+00  7.081E-04  1.107E-03  2.767E-04
   1    4   64     1    64    3.7521E+00  1.3831E-03   3.7507E+00  0.000E+00  0.000E+00  0.000E+00  1.22404E+02  1.454E+00  3.552E+00  7.080E-04  1.119E-03  2.640E-04
   1    4   65     1    65    3.7507E+00  1.3827E-03   3.7493E+00  0.000E+00  0.000E+00  0.000E+00  1.22103E+02  1.453E+00  3.551E+00  7.079E-04  1.132E-03  2.508E-04
   1    4   66     1    66    3.7493E+00  1.3823E-03   3.7480E+00  0.000E+00  0.000E+00  0.000E+00  1.21803E+02  1.453E+00  3.551E+00  7.078E-04  1.145E-03  2.373E-04
   1    4   67     1    67    3.7480E+00  1.3820E-03   3.7466E+00  0.000E+00  0.000E+00  0.000E+00  1.21503E+02  1.453E+00  3.551E+00  7.077E-04  1.158E-03  2.237E-04
   1    4   68     1    68    3.7466E+00  1.3816E-03   3.7452E+00  0.000E+00  0.000E+00  0.000E+00  1.21202E+02  1.452E+00  3.550E+00  7.076E-04  1.171E-03  2.103E-04
   1    4   69     1    69    3.7452E+00  1.3812E-03   3.7438E+00  0.000E+00  0.000E+00  0.000E+00  1.20902E+02  1.452E+00  3.550E+00  7.075E-04  1.184E-03  1.972E-04
   1    4   70     1    70    3.7438E+00  1.3808E-03   3.7424E+00  0.000E+00  0.000E+00  0.000E+00  1.20602E+02  1.452E+00  3.550E+00  7.074E-04  1.196E-03  1.847E-04
   1    4   71     1    71    3.7424E+00  1.3805E-03   3.7411E+00  0.000E+00  0.000E+00  0.000E+00  1.20302E+02  1.452E+00  3.549E+00  7.073E-04  1.208E-03  1.730E-04
   1    4   72     1    72    3.7411E+00  1.3801E-03   3.7397E+00  0.000E+00  0.000E+00  0.000E+00  1.20001E+02  1.451E+00  3.549E+00  7.072E-04  1.218E-03  1.622E-04
   1    4   73     1    73    3.7397E+00  1.3797E-03   3.7383E+00  0.000E+00  0.000E+00  0.000E+00  1.19701E+02  1.451E+00  3.549E+00  7.072E-04  1.227E-03  1.525E-04
   1    4   74     1    74    3.7383E+00  1.3793E-03   3.7369E+00  0.000E+00  0.000E+00  0.000E+00  1.19401E+02  1.451E+00  3.548E+00  7.071E-04  1.235E-03  1.440E-04
   1    4   75     1    75    3.7369E+00  1.3790E-03   3.7355E+00  0.000E+00  0.000E+00  0.000E+00  1.19101E+02  1.451E+00  3.548E+00  7.070E-04  1.242E-03  1.367E-04
   1    4   76     1    76    3.7355E+00  1.3786E-03   3.7342E+00  0.000E+00  0.000E+00  0.000E+00  1.18800E+02  1.450E+00  3.548E+00  7.069E-04  1.248E-03  1.307E-04
   1    4   77     1    77    3.7342E+00  1.3782E-03   3.7328E+00  0.000E+00  0.000E+00  0.000E+00  1.18500E+02  1.450E+00  3.547E+00  7.068E-04  1.252E-03  1.258E-04
   1    4   78     1    78    3.7328E+00  1.3778E-03   3.7314E+00  0.000E+00  0.000E+00  0.000E+00  1.18200E+02  1.450E+00  3.547E+00  7.067E-04  1.256E-03  1.221E-04
   1    4   79     1    79    3.7314E+00  1.3775E-03   3.7300E+00  0.000E+00  0.000E+00  0.000E+00  1.17899E+02  1.449E+00  3.547E+00  7.066E-04  1.258E-03  1.194E-04
   1    4   80     1    80    3.7300E+00  1.3771E-03   3.7286E+00  0.000E+00  0.000E+00  0.000E+00  1.17599E+02  1.449E+00  3.546E+00  7.065E-04  1.259E-03  1.176E-04
   1    4   81     1    81    3.7286E+00  1.3767E-03   3.7273E+00  0.000E+00  0.000E+00  0.000E+00  1.17299E+02  1.449E+00  3.546E+00  7.064E-04  1.260E-03  1.166E-04
   1    4   82     1    82    3.7273E+00  1.3764E-03   3.7259E+00  0.000E+00  0.000E+00  0.000E+00  1.16999E+02  1.449E+00  3.546E+00  7.063E-04  1.260E-03  1.162E-04
   1    4   83     1    83    3.7259E+00  1.3760E-03   3.7245E+00  0.000E+00  0.000E+00  0.000E+00  1.16698E+02  1.448E+00  3.545E+00  7.062E-04  1.260E-03  1.162E-04
   1    4   84     1    84    3.7245E+00  1.3756E-03   3.7231E+00  0.000E+00  0.000E+00  0.000E+00  1.16398E+02  1.448E+00  3.545E+00  7.062E-04  1.259E-03  1.165E-04
   1    4   85     1    85    3.7231E+00  1.3752E-03   3.7218E+00  0.000E+00  0.000E+00  0.000E+00  1.16098E+02  1.448E+00  3.545E+00  7.061E-04  1.259E-03  1.167E-04
   1    4   86     1    86    3.7218E+00  1.3749E-03   3.7204E+00  0.000E+00  0.000E+00  0.000E+00  1.15797E+02  1.447E+00  3.544E+00  7.060E-04  1.258E-03  1.166E-04
   1    4   87     1    87    3.7204E+00  1.3745E-03   3.7190E+00  0.000E+00  0.000E+00  0.000E+00  1.15497E+02  1.447E+00  3.544E+00  7.059E-04  1.258E-03  1.162E-04
   1    4   88     1    88    3.7190E+00  1.3741E-03   3.7176E+00  0.000E+00  0.000E+00  0.000E+00  1.15197E+02  1.447E+00  3.544E+00  7.058E-04  1.259E-03  1.151E-04
   1    4   89     1    89    3.7176E+00  1.3737E-03   3.7163E+00  0.000E+00  0.000E+00  0.000E+00  1.14897E+02  1.447E+00  3.543E+00  7.057E-04  1.261E-03  1.132E-04
   1    4   90     1    90    3.7163E+00  1.3734E-03   3.7149E+00  0.000E+00  0.000E+00  0.000E+00  1.14596E+02  1.446E+00  3.543E+00  7.056E-04  1.263E-03  1.102E-04
   1    4   91     1    91    3.7149E+00  1.3730E-03   3.7135E+00  0.000E+00  0.000E+00  0.000E+00  1.14296E+02  1.446E+00  3.543E+00  7.055E-04  1.267E-03  1.060E-04
   1    4   92     1    92    3.7135E+00  1.3726E-03   3.7121E+00  0.000E+00  0.000E+00  0.000E+00  1.13996E+02  1.446E+00  3.542E+00  7.054E-04  1.272E-03  1.005E-04
   1    4   93     1    93    3.7121E+00  1.3723E-03   3.7108E+00  0.000E+00  0.000E+00  0.000E+00  1.13696E+02  1.446E+00  3.542E+00  7.053E-04  1.279E-03  9.349E-05
   1    4   94     1    94    3.7108E+00  1.3719E-03   3.7094E+00  0.000E+00  0.000E+00  0.000E+00  1.13395E+02  1.445E+00  3.542E+00  7.052E-04  1.287E-03  8.491E-05
   1    4   95     1    95    3.7094E+00  1.3715E-03   3.7080E+00  0.000E+00  0.000E+00  0.000E+00  1.13095E+02  1.445E+00  3.541E+00  7.052E-04  1.297E-03  7.469E-05
   1    4   96     1    96    3.7080E+00  1.3711E-03   3.7067E+00  0.000E+00  0.000E+00  0.000E+00  1.12795E+02  1.445E+00  3.541E+00  7.051E-04  1.308E-03  6.283E-05
   1    4   97     1    97    3.7067E+00  1.3708E-03   3.7053E+00  0.000E+00  0.000E+00  0.000E+00  1.12494E+02  1.444E+00  3.541E+00  7.050E-04  1.321E-03  4.934E-05
   1    4   98     1    98    3.7053E+00  1.3704E-03   3.7039E+00  0.000E+00  0.000E+00  0.000E+00  1.12194E+02  1.444E+00  3.540E+00  7.049E-04  1.336E-03  3.431E-05
   1    4   99     1    99    3.7039E+00  1.3700E-03   3.7026E+00  0.000E+00  0.000E+00  0.000E+00  1.11894E+02  1.444E+00  3.540E+00  7.048E-04  1.352E-03  1.785E-05
   1    4  100     1   100    3.7026E+00  1.3697E-03   3.7012E+00  0.000E+00  0.000E+00  0.000E+00  1.11594E+02  1.444E+00  3.540E+00  7.047E-04  0.000E+00  0.000E+00



1
  VOLUMETRIC BUDGET FOR UNSATURATED ZONE BENEATH STREAMS AT END OF TIME STEP    30 STRESS PERIOD   3
  ------------------------------------------------------------------------------------------------

    CUMULATIVE VOLUMES             L**3    RATES FOR THIS TIME STEP         L**3/T
    ------------------                     ------------------------


          STREAM LOSS =       715423.6875            STREAM LOSS =            0.1388
    CHANGE IN STORAGE =       438696.7188      CHANGE IN STORAGE =        2.5676E-02
       RECHARGE TO GW =       276727.3125         RECHARGE TO GW =            0.1131

             TOTAL IN =       715423.6875               TOTAL IN =            0.1388

            TOTAL OUT =       715424.0000              TOTAL OUT =            0.1388

             IN - OUT =           -0.3125               IN - OUT =       -1.4901E-08

  PERCENT DISCREPANCY =           -0.00      PERCENT DISCREPANCY =            -0.00



1
  VOLUMETRIC BUDGET FOR ENTIRE MODEL AT END OF TIME STEP   30, STRESS PERIOD   3
  ------------------------------------------------------------------------------

     CUMULATIVE VOLUMES      L**3       RATES FOR THIS TIME STEP      L**3/T
     ------------------                 ------------------------

           IN:                                      IN:
           ---                                      ---
             STORAGE     =    26409886.0000               STORAGE     =           2.4496
       CONSTANT HEAD     =           0.0000         CONSTANT HEAD     =           0.0000
               WELLS     =           0.0000                 WELLS     =           0.0000
     HEAD DEP BOUNDS     =           0.0000       HEAD DEP BOUNDS     =           0.0000
      STREAM LEAKAGE     =      276727.2812        STREAM LEAKAGE     =           0.1131

                TOTAL IN =    26686614.0000                  TOTAL IN =           2.5627

          OUT:                                     OUT:
          ----                                     ----
             STORAGE     =       56556.4570               STORAGE     =       1.5513E-02
       CONSTANT HEAD     =           0.0000         CONSTANT HEAD     =           0.0000
               WELLS     =    20424958.0000                 WELLS     =           2.1400
     HEAD DEP BOUNDS     =     6205101.5000       HEAD DEP BOUNDS     =           0.4072
      STREAM LEAKAGE     =           0.0000        STREAM LEAKAGE     =           0.0000

               TOTAL OUT =    26686616.0000                 TOTAL OUT =           2.5627

                IN - OUT =          -2.0000                  IN - OUT =       2.3842E-07

     PERCENT DISCREPANCY =          -0.00         PERCENT DISCREPANCY =           0.00






         TIME SUMMARY AT END OF TIME STEP   30 IN STRESS PERIOD    3
                    SECONDS     MINUTES      HOURS       DAYS        YEARS
                    -----------------------------------------------------------
   TIME STEP LENGTH 2.49961E+05  4166.0      69.434      2.8931     7.92080E-03
 STRESS PERIOD TIME 2.59200E+06  43200.      720.00      30.000     8.21355E-02
         TOTAL TIME 7.77600E+06 1.29600E+05  2160.0      90.000     0.24641    
1
1
                            STRESS PERIOD NO.    4, LENGTH =   2592000.    
                            -----------------------------------------------

                              NUMBER OF TIME STEPS =    30

                               MULTIPLIER FOR DELT =     1.100

                            INITIAL TIME STEP SIZE =   15757.40    

 REUSING NON-PARAMETER WELLS FROM LAST STRESS PERIOD

      1 WELL 

 REUSING NON-PARAMETER GHB CELLS FROM LAST STRESS PERIOD

      7 GHB CELLS



 CLASSIFICATION & COUNT OF STREAM SEGMENTS BASED ON SOURCE OF INFLOW:

                HEADWATER     DIVERSION     RECEIVES TRIBUTARY FLOW
                ---------     ---------     -----------------------
                     1              0               0



                    INPUT DATA FOR EACH STREAM SEGMENT
 ---------------------------------------------------------------------------------------------

 SEGMENT    SEG.     INFLOW   OVERLAND   STREAM    STREAM   ICALC  OUTFLOW  DIVERSION PRIORITY
    NO.    LENGTH     RATE     RUNOFF      ET       PPT.    METH.  TO SEG.  FROM SEG.    NO.

      1  2.000E+04 1.785E+01 0.000E+00 0.000E+00 0.000E+00    2        0        0        0


         STREAMBED PROPERTIES AND STREAM DIMENSIONS

 SEGMENT     BED HYD. COND.      BED THICKNESS     ELEV.-TOP OF BED     WIDTH OF STREAM     DEPTH OF STREAM    STREAM ROUGHNESS
    No.     UPPER     LOWER     UPPER     LOWER     UPPER     LOWER     UPPER     LOWER     UPPER     LOWER   CHANNEL      BANK

     1  3.500E-07 3.500E-07                                                                                 3.000E-02 4.000E-02

  EIGHT POINT CROSS-SECTION DATA FOR SEGMENTS WITH ICALC = 2
    X VALUES X VALUES START FROM LEFT SIDE LOOKING DOWNSTREAM

     SEGMENT NO.        X1        X2        X3        X4        X5        X6        X7        X8
            1      0.000E+00 2.000E+00 4.000E+00 6.000E+00 8.000E+00 1.000E+01 1.200E+01 1.400E+01

    Z VALUES ARE RELATIVE TO STREAMBED ELEVATION

     SEGMENT NO.          Z1        Z2        Z3        Z4        Z5        Z6        Z7        Z8
            1      6.000E+00 4.500E+00 3.500E+00 0.000E+00 3.000E-01 3.500E+00 4.500E+00 6.000E+00



 
 SOLVING FOR HEAD 
                                                   Max.-Head-Change                         Max.-Flux-Residual
  Residual-Control   Outer-Iter.   Inner-Iter.     Column Row Layer    Maximum-Head-Change  Column Row Layer    Maximum-Flux-Residual          L2-NORM 
          0                 1           2            50    3     1       0.1093919100E+01      50    3    1         0.4392239461E+00      0.6328961604E+00
          0                 2           2            50    3     1      -0.1096692281E+00      50    3    1        -0.4478019628E-01      0.6447088624E-01
          0                 3           2            50    3     1       0.9767946746E-02      50    3    1         0.4021780727E-02      0.5790177009E-02
          0                 4           2            50    3     1      -0.7754147530E-03      50    3    1        -0.3222118163E-03      0.4640136979E-03
          0                 5           1            50    3     1       0.5401607724E-04      50    3    1         0.2265075525E-04      0.3263191143E-04
          0                 6           1            50    3     1      -0.3243509051E-05      50    3    1        -0.1372544384E-05      0.1978155305E-05
          0                 7           1            50    3     1       0.1638897363E-06      50    3    1         0.6998592195E-07      0.1009002246E-06

    ------------------------------------------------
       NWT REQUIRED            7 OUTER ITERATIONS 
       AND A TOTAL OF         11 INNER ITERATIONS.
    ------------------------------------------------

 NO OUTPUT CONTROL FOR STRESS PERIOD    4   TIME STEP    1
 
 SOLVING FOR HEAD 
                                                   Max.-Head-Change                         Max.-Flux-Residual
  Residual-Control   Outer-Iter.   Inner-Iter.     Column Row Layer    Maximum-Head-Change  Column Row Layer    Maximum-Flux-Residual          L2-NORM 
          0                 1           2            50    3     1       0.6792896982E+00      50    3    1         0.2269430607E+00      0.3508268277E+00
          0                 2           2            50    3     1      -0.6807060440E-01      50    3    1        -0.2315819906E-01      0.3552847984E-01
          0                 3           2            50    3     1       0.6063037838E-02      50    3    1         0.2079592950E-02      0.3192104709E-02
          0                 4           2            50    3     1      -0.4813043990E-03      50    3    1        -0.1666123029E-03      0.2559687747E-03
          0                 5           1            50    3     1       0.3352810088E-04      50    3    1         0.1171245090E-04      0.1801925559E-04
          0                 6           1            50    3     1      -0.2013260681E-05      50    3    1        -0.7097252865E-06      0.1093489341E-05
          0                 7           1            50    3     1       0.1017268590E-06      50    3    1         0.3618872135E-07      0.5582804179E-07

    ------------------------------------------------
       NWT REQUIRED            7 OUTER ITERATIONS 
       AND A TOTAL OF         11 INNER ITERATIONS.
    ------------------------------------------------

 NO OUTPUT CONTROL FOR STRESS PERIOD    4   TIME STEP    2
 
 SOLVING FOR HEAD 
                                                   Max.-Head-Change                         Max.-Flux-Residual
  Residual-Control   Outer-Iter.   Inner-Iter.     Column Row Layer    Maximum-Head-Change  Column Row Layer    Maximum-Flux-Residual          L2-NORM 
          0                 1           2            50    3     1       0.4577989524E+00      50    3    1         0.1281074723E+00      0.2349022191E+00
          0                 2           2            50    3     1      -0.4574679890E-01      50    3    1        -0.1301739585E-01      0.2356246146E-01
          0                 3           2            50    3     1       0.4075947123E-02      50    3    1         0.1169491528E-02      0.2118491374E-02
          0                 4           2            50    3     1      -0.3235522646E-03      50    3    1        -0.9369275203E-04      0.1700869021E-03
          0                 5           1            50    3     1       0.2253901123E-04      50    3    1         0.6586405839E-05      0.1199764343E-04
          0                 6           1            50    3     1      -0.1353391277E-05      50    3    1        -0.3991053967E-06      0.7296566491E-06
          0                 7           1            50    3     1       0.6838427490E-07      50    3    1         0.2035012514E-07      0.3732676741E-07

    ------------------------------------------------
       NWT REQUIRED            7 OUTER ITERATIONS 
       AND A TOTAL OF         11 INNER ITERATIONS.
    ------------------------------------------------

 NO OUTPUT CONTROL FOR STRESS PERIOD    4   TIME STEP    3
 
 SOLVING FOR HEAD 
                                                   Max.-Head-Change                         Max.-Flux-Residual
  Residual-Control   Outer-Iter.   Inner-Iter.     Column Row Layer    Maximum-Head-Change  Column Row Layer    Maximum-Flux-Residual          L2-NORM 
          0                 1           2            50    3     1       0.3307379636E+00      50    3    1         0.7851873353E-01      0.1803065961E+00
          0                 2           2            50    3     1      -0.3297127694E-01      50    3    1        -0.7945053087E-02      0.1796128719E-01
          0                 3           2            50    3     1       0.2938471735E-02      50    3    1         0.7141218227E-03      0.1615445047E-02
          0                 4           2            50    3     1      -0.2332523091E-03      50    3    1        -0.5720857721E-04      0.1299279032E-03
          0                 5           1            50    3     1       0.1624865692E-04      50    3    1         0.4021660798E-05      0.9190929435E-05
          0                 6           1            50    3     1      -0.9756646544E-06      50    3    1        -0.2436894917E-06      0.5607255996E-06

    ------------------------------------------------
       NWT REQUIRED            6 OUTER ITERATIONS 
       AND A TOTAL OF         10 INNER ITERATIONS.
    ------------------------------------------------

 NO OUTPUT CONTROL FOR STRESS PERIOD    4   TIME STEP    4
 
 SOLVING FOR HEAD 
                                                   Max.-Head-Change                         Max.-Flux-Residual
  Residual-Control   Outer-Iter.   Inner-Iter.     Column Row Layer    Maximum-Head-Change  Column Row Layer    Maximum-Flux-Residual          L2-NORM 
          0                 1           2            50    3     1       0.2525702403E+00      50    3    1         0.5157324775E-01      0.1505727150E+00
          0                 2           2            50    3     1      -0.2513770537E-01      50    3    1        -0.5202101554E-02      0.1492765920E-01
          0                 3           2            50    3     1       0.2240742092E-02      50    3    1         0.4677424322E-03      0.1342735800E-02
          0                 4           2            50    3     1      -0.1778643772E-03      50    3    1        -0.3746972537E-04      0.1082160624E-03
          0                 5           1            50    3     1       0.1239028340E-04      50    3    1         0.2634062982E-05      0.7680473320E-05
          0                 6           1            50    3     1      -0.7439680575E-06      50    3    1        -0.1596034078E-06      0.4703471152E-06

    ------------------------------------------------
       NWT REQUIRED            6 OUTER ITERATIONS 
       AND A TOTAL OF         10 INNER ITERATIONS.
    ------------------------------------------------

 NO OUTPUT CONTROL FOR STRESS PERIOD    4   TIME STEP    5
 
 SOLVING FOR HEAD 
                                                   Max.-Head-Change                         Max.-Flux-Residual
  Residual-Control   Outer-Iter.   Inner-Iter.     Column Row Layer    Maximum-Head-Change  Column Row Layer    Maximum-Flux-Residual          L2-NORM 
          0                 1           2            50    3     1       0.2014464896E+00      50    3    1         0.3581481751E-01      0.1322989592E+00
          0                 2           2            50    3     1      -0.2002768935E-01      50    3    1        -0.3604731195E-02      0.1306685929E-01
          0                 3           2            50    3     1       0.1785472444E-02      50    3    1         0.3241946876E-03      0.1175402084E-02
          0                 4           2            50    3     1      -0.1417248317E-03      50    3    1        -0.2596983707E-04      0.9493515218E-04
          0                 5           1            50    3     1       0.9872764273E-05      50    3    1         0.1825642773E-05      0.6761839632E-05
          0                 6           1            50    3     1      -0.5927820768E-06      50    3    1        -0.1106126266E-06      0.4158061464E-06

    ------------------------------------------------
       NWT REQUIRED            6 OUTER ITERATIONS 
       AND A TOTAL OF         10 INNER ITERATIONS.
    ------------------------------------------------

 NO OUTPUT CONTROL FOR STRESS PERIOD    4   TIME STEP    6
 
 SOLVING FOR HEAD 
                                                   Max.-Head-Change                         Max.-Flux-Residual
  Residual-Control   Outer-Iter.   Inner-Iter.     Column Row Layer    Maximum-Head-Change  Column Row Layer    Maximum-Flux-Residual          L2-NORM 
          0                 1           2            50    2     1       0.1670798227E+00      50    3    1         0.2597604384E-01      0.1200372245E+00
          0                 2           2            50    2     1      -0.1659071021E-01      50    3    1        -0.2610680442E-02      0.1181828124E-01
          0                 3           2            50    2     1       0.1479274162E-02      50    3    1         0.2348316357E-03      0.1063114200E-02
          0                 4           2            50    2     1      -0.1174185168E-03      50    3    1        -0.1881104876E-04      0.8605282961E-04
          0                 5           1            50    2     1       0.8179584667E-05      50    3    1         0.1322391977E-05      0.6151495037E-05
          0                 6           1            50    2     1      -0.4911253477E-06      50    3    1        -0.8011341990E-07      0.3799098815E-06

    ------------------------------------------------
       NWT REQUIRED            6 OUTER ITERATIONS 
       AND A TOTAL OF         10 INNER ITERATIONS.
    ------------------------------------------------

 NO OUTPUT CONTROL FOR STRESS PERIOD    4   TIME STEP    7
 
 SOLVING FOR HEAD 
                                                   Max.-Head-Change                         Max.-Flux-Residual
  Residual-Control   Outer-Iter.   Inner-Iter.     Column Row Layer    Maximum-Head-Change  Column Row Layer    Maximum-Flux-Residual          L2-NORM 
          0                 1           2            50    2     1       0.1464044749E+00      50    2    1         0.1958419210E-01      0.1113255069E+00
          0                 2           2            50    2     1      -0.1453605652E-01      50    2    1        -0.1963882575E-02      0.1093008225E-01
          0                 3           2            50    2     1       0.1296102390E-02      50    2    1         0.1766956709E-03      0.9832491552E-03
          0                 4           1            50    2     1      -0.1028787407E-03      50    2    1        -0.1415375450E-04      0.7975646149E-04
          0                 5           1            50    2     1       0.7165920223E-05      50    2    1         0.9949925106E-06      0.5720983200E-05
          0                 6           1            50    2     1      -0.4302412725E-06      50    2    1        -0.6029263044E-07      0.3548596523E-06

    ------------------------------------------------
       NWT REQUIRED            6 OUTER ITERATIONS 
       AND A TOTAL OF          9 INNER ITERATIONS.
    ------------------------------------------------

 NO OUTPUT CONTROL FOR STRESS PERIOD    4   TIME STEP    8
 
 SOLVING FOR HEAD 
                                                   Max.-Head-Change                         Max.-Flux-Residual
  Residual-Control   Outer-Iter.   Inner-Iter.     Column Row Layer    Maximum-Head-Change  Column Row Layer    Maximum-Flux-Residual          L2-NORM 
          0                 1           2            50    1     1       0.1310109865E+00      50    2    1         0.1560085031E-01      0.1048879888E+00
          0                 2           2            50    1     1      -0.1300834274E-01      50    2    1        -0.1564187736E-02      0.1027253432E-01
          0                 3           2            50    1     1       0.1159971960E-02      50    2    1         0.1407365086E-03      0.9242041319E-03
          0                 4           1            50    1     1      -0.9207842542E-04      50    2    1        -0.1127331852E-04      0.7514102488E-04
          0                 5           1            50    1     1       0.6413058139E-05      50    2    1         0.7925013286E-06      0.5410516267E-05
          0                 6           1            50    1     1      -0.3849943034E-06      50    2    1        -0.4802245535E-07      0.3371709608E-06

    ------------------------------------------------
       NWT REQUIRED            6 OUTER ITERATIONS 
       AND A TOTAL OF          9 INNER ITERATIONS.
    ------------------------------------------------

 NO OUTPUT CONTROL FOR STRESS PERIOD    4   TIME STEP    9
 
 SOLVING FOR HEAD 
                                                   Max.-Head-Change                         Max.-Flux-Residual
  Residual-Control   Outer-Iter.   Inner-Iter.     Column Row Layer    Maximum-Head-Change  Column Row Layer    Maximum-Flux-Residual          L2-NORM 
          0                 1           2            50    1     1       0.1165145305E+00      50    1    1         0.1269132688E-01      0.1000751388E+00
          0                 2           2            50    1     1      -0.1156768029E-01      50    1    1        -0.1272925197E-02      0.9782776016E-02
          0                 3           2            50    1     1       0.1031568959E-02      50    1    1         0.1145257945E-03      0.8801321705E-03
          0                 4           1            50    1     1      -0.8188825921E-04      50    1    1        -0.9173816394E-05      0.7168353950E-04
          0                 5           1            50    1     1       0.5702837667E-05      50    1    1         0.6445581135E-06      0.5177472626E-05
          0                 6           1            50    1     1      -0.3423191321E-06      50    1    1        -0.3903336232E-07      0.3239362184E-06

    ------------------------------------------------
       NWT REQUIRED            6 OUTER ITERATIONS 
       AND A TOTAL OF          9 INNER ITERATIONS.
    ------------------------------------------------

 NO OUTPUT CONTROL FOR STRESS PERIOD    4   TIME STEP   10
 
 SOLVING FOR HEAD 
                                                   Max.-Head-Change                         Max.-Flux-Residual
  Residual-Control   Outer-Iter.   Inner-Iter.     Column Row Layer    Maximum-Head-Change  Column Row Layer    Maximum-Flux-Residual          L2-NORM 
          0                 1           2            50    1     1       0.1031526165E+00      50    1    1         0.1026104838E-01      0.9642306685E-01
          0                 2           2            50    1     1      -0.1023960326E-01      50    1    1        -0.1028861687E-02      0.9412468614E-02
          0                 3           2            50    1     1       0.9132137027E-03      50    1    1         0.9257032998E-04      0.8468536015E-03
          0                 4           1            50    1     1      -0.7249615437E-04      50    1    1        -0.7415101707E-05      0.6908144263E-04
          0                 5           1            50    1     1       0.5048175386E-05      50    1    1         0.5208576770E-06      0.5003292233E-05
          0                 6           1            50    1     1      -0.3029762578E-06      50    1    1        -0.3153260053E-07      0.3141850080E-06

    ------------------------------------------------
       NWT REQUIRED            6 OUTER ITERATIONS 
       AND A TOTAL OF          9 INNER ITERATIONS.
    ------------------------------------------------

 NO OUTPUT CONTROL FOR STRESS PERIOD    4   TIME STEP   11
 
 SOLVING FOR HEAD 
                                                   Max.-Head-Change                         Max.-Flux-Residual
  Residual-Control   Outer-Iter.   Inner-Iter.     Column Row Layer    Maximum-Head-Change  Column Row Layer    Maximum-Flux-Residual          L2-NORM 
          0                 1           2            61    1     1      -0.9713897423E-01      50    1    1         0.8258589058E-02      0.9358848366E-01
          0                 2           2            61    1     1       0.9347550959E-02      50    1    1        -0.8277736923E-03      0.9126415824E-02
          0                 3           2            61    1     1      -0.8108865478E-03      50    1    1         0.7448074003E-04      0.8211967003E-03
          0                 4           1            50    1     1      -0.6409467368E-04      50    1    1        -0.5966058909E-05      0.6708201937E-04
          0                 5           1            50    1     1       0.4462480691E-05      50    1    1         0.4189214753E-06      0.4870214558E-05
          0                 6           1            50    1     1      -0.2677705006E-06      62    4    1        -0.2560042134E-07      0.3068331538E-06

    ------------------------------------------------
       NWT REQUIRED            6 OUTER ITERATIONS 
       AND A TOTAL OF          9 INNER ITERATIONS.
    ------------------------------------------------

 NO OUTPUT CONTROL FOR STRESS PERIOD    4   TIME STEP   12
 
 SOLVING FOR HEAD 
                                                   Max.-Head-Change                         Max.-Flux-Residual
  Residual-Control   Outer-Iter.   Inner-Iter.     Column Row Layer    Maximum-Head-Change  Column Row Layer    Maximum-Flux-Residual          L2-NORM 
          0                 1           2            61    1     1      -0.1046797612E+00      61    1    1        -0.7090222743E-02      0.9113608026E-01
          0                 2           2            61    1     1       0.1005556552E-01      61    1    1         0.7088129802E-03      0.8899515800E-02
          0                 3           2            61    1     1      -0.8706454493E-03      61    1    1        -0.6379788780E-04      0.8029726774E-03
          0                 4           1            61    1     1       0.6718070670E-04      61    1    1         0.5110156799E-05      0.6582480542E-04
          0                 5           1            61    1     1      -0.4555537153E-05      61    1    1        -0.3592395004E-06      0.4795942313E-05
          0                 6           1            61    1     1       0.2667429106E-06      62    4    1        -0.2593014514E-07      0.3031882845E-06

    ------------------------------------------------
       NWT REQUIRED            6 OUTER ITERATIONS 
       AND A TOTAL OF          9 INNER ITERATIONS.
    ------------------------------------------------

 NO OUTPUT CONTROL FOR STRESS PERIOD    4   TIME STEP   13
 
 SOLVING FOR HEAD 
                                                   Max.-Head-Change                         Max.-Flux-Residual
  Residual-Control   Outer-Iter.   Inner-Iter.     Column Row Layer    Maximum-Head-Change  Column Row Layer    Maximum-Flux-Residual          L2-NORM 
          0                 1           2            62    1     1      -0.1131053753E+00      61    1    1        -0.6947102528E-02      0.8882698590E-01
          0                 2           2            62    1     1       0.1083540241E-01      61    1    1         0.6944514945E-03      0.8676290815E-02
          0                 3           2            62    1     1      -0.9352978925E-03      61    1    1        -0.6250610584E-04      0.7839456327E-03
          0                 4           1            62    1     1       0.7192844276E-04      61    1    1         0.5006677176E-05      0.6441889120E-04
          0                 5           1            62    1     1      -0.4858767849E-05      61    1    1        -0.3519650527E-06      0.4706227758E-05
          0                 6           1            62    1     1       0.2833043726E-06      62    4    1        -0.2614994798E-07      0.2984064577E-06

    ------------------------------------------------
       NWT REQUIRED            6 OUTER ITERATIONS 
       AND A TOTAL OF          9 INNER ITERATIONS.
    ------------------------------------------------

 NO OUTPUT CONTROL FOR STRESS PERIOD    4   TIME STEP   14
 
 SOLVING FOR HEAD 
                                                   Max.-Head-Change                         Max.-Flux-Residual
  Residual-Control   Outer-Iter.   Inner-Iter.     Column Row Layer    Maximum-Head-Change  Column Row Layer    Maximum-Flux-Residual          L2-NORM 
          0                 1           2            62    1     1      -0.1222365923E+00      62    1    1        -0.6825517302E-02      0.8677935356E-01
          0                 2           2            62    1     1       0.1168995321E-01      62    1    1         0.6823546536E-03      0.8466622538E-02
          0                 3           2            62    1     1      -0.1007116597E-02      62    1    1        -0.6141719959E-04      0.7653012964E-03
          0                 4           1            62    1     1       0.7727976441E-04      62    1    1         0.4919455007E-05      0.6300210061E-04
          0                 5           1            62    1     1      -0.5205732100E-05      62    3    1        -0.3458259776E-06      0.4613826974E-05
          0                 6           1            62    1     1       0.3025706180E-06      62    4    1        -0.2625564122E-07      0.2934041235E-06

    ------------------------------------------------
       NWT REQUIRED            6 OUTER ITERATIONS 
       AND A TOTAL OF          9 INNER ITERATIONS.
    ------------------------------------------------

 NO OUTPUT CONTROL FOR STRESS PERIOD    4   TIME STEP   15
 
 SOLVING FOR HEAD 
                                                   Max.-Head-Change                         Max.-Flux-Residual
  Residual-Control   Outer-Iter.   Inner-Iter.     Column Row Layer    Maximum-Head-Change  Column Row Layer    Maximum-Flux-Residual          L2-NORM 
          0                 1           2            62    1     1      -0.1317167336E+00      62    1    1        -0.6706977442E-02      0.8496902231E-01
          0                 2           2            62    1     1       0.1257505769E-01      62    1    1         0.6704533685E-03      0.8284111565E-02
          0                 3           2            62    1     1      -0.1081298899E-02      62    1    1        -0.6034688595E-04      0.7493590341E-03
          0                 4           1            62    1     1       0.8278718631E-04      62    1    1         0.4833714344E-05      0.6181699671E-04
          0                 5           1            62    1     1      -0.5560306327E-05      67    4    1         0.3723148723E-06      0.4537621350E-05
          0                 6           1            62    1     1       0.3220707827E-06      67    4    1        -0.2868772242E-07      0.2893410415E-06

    ------------------------------------------------
       NWT REQUIRED            6 OUTER ITERATIONS 
       AND A TOTAL OF          9 INNER ITERATIONS.
    ------------------------------------------------

 NO OUTPUT CONTROL FOR STRESS PERIOD    4   TIME STEP   16
 
 SOLVING FOR HEAD 
                                                   Max.-Head-Change                         Max.-Flux-Residual
  Residual-Control   Outer-Iter.   Inner-Iter.     Column Row Layer    Maximum-Head-Change  Column Row Layer    Maximum-Flux-Residual          L2-NORM 
          0                 1           2            62    1     1      -0.1414794537E+00      62    1    1        -0.6571114863E-02      0.8326738293E-01
          0                 2           2            62    1     1       0.1348114045E-01      62    1    1         0.6568141109E-03      0.8115082975E-02
          0                 3           2            62    1     1      -0.1156814884E-02      62    1    1        -0.5912022456E-04      0.7351592238E-03
          0                 4           1            62    1     1       0.8836056221E-04      62    1    1         0.4735449359E-05      0.6082235254E-04
          0                 5           1            62    1     1      -0.5915317928E-05      66    4    1         0.4103388598E-06      0.4477027426E-05
          0                 6           1            62    1     1       0.3413427931E-06      65    4    1        -0.3133338211E-07      0.2862802612E-06

    ------------------------------------------------
       NWT REQUIRED            6 OUTER ITERATIONS 
       AND A TOTAL OF          9 INNER ITERATIONS.
    ------------------------------------------------

 NO OUTPUT CONTROL FOR STRESS PERIOD    4   TIME STEP   17
 
 SOLVING FOR HEAD 
                                                   Max.-Head-Change                         Max.-Flux-Residual
  Residual-Control   Outer-Iter.   Inner-Iter.     Column Row Layer    Maximum-Head-Change  Column Row Layer    Maximum-Flux-Residual          L2-NORM 
          0                 1           2            63    1     1      -0.1516625085E+00      62    1    1        -0.6417594808E-02      0.8157191557E-01
          0                 2           2            63    1     1       0.1438346536E-01      62    1    1         0.6413899699E-03      0.7965619999E-02
          0                 3           2            62    1     1      -0.1231087425E-02      62    1    1        -0.5773311179E-04      0.7240849596E-03
          0                 4           1            62    1     1       0.9379127699E-04      62    1    1         0.4624330787E-05      0.6014992748E-04
          0                 5           1            62    1     1      -0.6255401958E-05      64    4    1         0.4343343747E-06      0.4440209560E-05
          0                 6           1            62    1     1       0.3594493293E-06      64    4    1        -0.3349869715E-07      0.2845755866E-06

    ------------------------------------------------
       NWT REQUIRED            6 OUTER ITERATIONS 
       AND A TOTAL OF          9 INNER ITERATIONS.
    ------------------------------------------------

 NO OUTPUT CONTROL FOR STRESS PERIOD    4   TIME STEP   18
 
 SOLVING FOR HEAD 
                                                   Max.-Head-Change                         Max.-Flux-Residual
  Residual-Control   Outer-Iter.   Inner-Iter.     Column Row Layer    Maximum-Head-Change  Column Row Layer    Maximum-Flux-Residual          L2-NORM 
          0                 1           2            63    1     1      -0.1605632769E+00      63    1    1        -0.6256696375E-02      0.7960581065E-01
          0                 2           2            63    1     1       0.1511464963E-01      63    1    1         0.6251848373E-03      0.7760943484E-02
          0                 3           2            62    1     1      -0.1283158317E-02      63    1    1        -0.5627660135E-04      0.7065998721E-03
          0                 4           1            62    1     1       0.9710884451E-04      63    4    1        -0.4557321077E-05      0.5892555328E-04
          0                 5           1            62    1     1      -0.6430526461E-05      63    4    1         0.4443703041E-06      0.4364051069E-05
          0                 6           1            62    1     1       0.3670409229E-06      63    4    1        -0.3365057921E-07      0.2805528905E-06

    ------------------------------------------------
       NWT REQUIRED            6 OUTER ITERATIONS 
       AND A TOTAL OF          9 INNER ITERATIONS.
    ------------------------------------------------

 NO OUTPUT CONTROL FOR STRESS PERIOD    4   TIME STEP   19
 
 SOLVING FOR HEAD 
                                                   Max.-Head-Change                         Max.-Flux-Residual
  Residual-Control   Outer-Iter.   Inner-Iter.     Column Row Layer    Maximum-Head-Change  Column Row Layer    Maximum-Flux-Residual          L2-NORM 
          0                 1           2            63    1     1      -0.1707021557E+00      63    1    1        -0.6025664844E-02      0.7766455943E-01
          0                 2           2            63    1     1       0.1602005454E-01      63    1    1         0.6021078605E-03      0.7567068343E-02
          0                 3           2            63    1     1      -0.1353947293E-02      63    1    1        -0.5419992343E-04      0.6901135139E-03
          0                 4           1            63    1     1       0.1018393132E-03      63    1    1         0.4341296783E-05      0.5774702813E-04
          0                 5           1            63    1     1      -0.6689276786E-05      62    4    1         0.4253857462E-06      0.4285636160E-05
          0                 6           1            63    1     1       0.3785208012E-06      62    4    1        -0.3264509729E-07      0.2760511455E-06

    ------------------------------------------------
       NWT REQUIRED            6 OUTER ITERATIONS 
       AND A TOTAL OF          9 INNER ITERATIONS.
    ------------------------------------------------

 NO OUTPUT CONTROL FOR STRESS PERIOD    4   TIME STEP   20
 
 SOLVING FOR HEAD 
                                                   Max.-Head-Change                         Max.-Flux-Residual
  Residual-Control   Outer-Iter.   Inner-Iter.     Column Row Layer    Maximum-Head-Change  Column Row Layer    Maximum-Flux-Residual          L2-NORM 
          0                 1           3            64    1     1      -0.1823982958E+00      63    1    1        -0.5825322641E-02      0.7585142769E-01
          0                 2           2            64    1     1       0.1705940708E-01      63    1    1         0.5821032630E-03      0.7394104405E-02
          0                 3           2            63    1     1      -0.1437393226E-02      63    1    1        -0.5239975300E-04      0.6775829043E-03
          0                 4           2            63    1     1       0.1077983958E-03      63    1    1         0.4197097716E-05      0.5707074411E-04
          0                 5           1            63    1     1      -0.7093243794E-05      43    4    1         0.4115256651E-06      0.4297018149E-05
          0                 6           1            63    1     1       0.3981141483E-06      42    4    1        -0.3103428980E-07      0.2773140817E-06

    ------------------------------------------------
       NWT REQUIRED            6 OUTER ITERATIONS 
       AND A TOTAL OF         11 INNER ITERATIONS.
    ------------------------------------------------

 NO OUTPUT CONTROL FOR STRESS PERIOD    4   TIME STEP   21
 
 SOLVING FOR HEAD 
                                                   Max.-Head-Change                         Max.-Flux-Residual
  Residual-Control   Outer-Iter.   Inner-Iter.     Column Row Layer    Maximum-Head-Change  Column Row Layer    Maximum-Flux-Residual          L2-NORM 
          0                 1           3            64    1     1      -0.1959744353E+00      64    1    1        -0.5660258322E-02      0.7401637989E-01
          0                 2           2            64    1     1       0.1829679117E-01      64    1    1         0.5656800497E-03      0.7229452181E-02
          0                 3           2            64    1     1      -0.1536917595E-02      64    1    1        -0.5092101246E-04      0.6656434631E-03
          0                 4           2            64    1     1       0.1148173313E-03      64    1    1         0.4078633463E-05      0.5638233312E-04
          0                 5           1            64    1     1      -0.7517500018E-05      64    4    1         0.3845861087E-06      0.4266574604E-05
          0                 6           1            63    1     1       0.4171728056E-06      64    4    1        -0.3067881238E-07      0.2753843598E-06

    ------------------------------------------------
       NWT REQUIRED            6 OUTER ITERATIONS 
       AND A TOTAL OF         11 INNER ITERATIONS.
    ------------------------------------------------

 NO OUTPUT CONTROL FOR STRESS PERIOD    4   TIME STEP   22
 
 SOLVING FOR HEAD 
                                                   Max.-Head-Change                         Max.-Flux-Residual
  Residual-Control   Outer-Iter.   Inner-Iter.     Column Row Layer    Maximum-Head-Change  Column Row Layer    Maximum-Flux-Residual          L2-NORM 
          0                 1           3            64    1     1      -0.2101590742E+00      64    1    1        -0.5529524415E-02      0.7221887475E-01
          0                 2           2            64    1     1       0.1958857045E-01      64    1    1         0.5525594466E-03      0.7039824902E-02
          0                 3           2            64    1     1      -0.1642128917E-02      64    1    1        -0.4974077860E-04      0.6490935696E-03
          0                 4           2            64    1     1       0.1223702362E-03      71    4    1        -0.4432271705E-05      0.5517817743E-04
          0                 5           1            64    1     1      -0.7984632790E-05      71    4    1         0.4300681695E-06      0.4193299768E-05
          0                 6           1            64    1     1       0.4376140391E-06      71    4    1        -0.3204761256E-07      0.2704599671E-06

    ------------------------------------------------
       NWT REQUIRED            6 OUTER ITERATIONS 
       AND A TOTAL OF         11 INNER ITERATIONS.
    ------------------------------------------------

 NO OUTPUT CONTROL FOR STRESS PERIOD    4   TIME STEP   23
 
 SOLVING FOR HEAD 
                                                   Max.-Head-Change                         Max.-Flux-Residual
  Residual-Control   Outer-Iter.   Inner-Iter.     Column Row Layer    Maximum-Head-Change  Column Row Layer    Maximum-Flux-Residual          L2-NORM 
          0                 1           3            64    1     1      -0.2248908107E+00      64    1    1        -0.5391446628E-02      0.7074637598E-01
          0                 2           2            64    1     1       0.2092489083E-01      64    1    1         0.5386999099E-03      0.6881621582E-02
          0                 3           2            64    1     1      -0.1750578493E-02      64    7    1        -0.4849399271E-04      0.6353448578E-03
          0                 4           2            64    7     1       0.1301279569E-03      70    4    1        -0.4864885970E-05      0.5420345896E-04
          0                 5           1            64    1     1      -0.8461566310E-05      69    4    1         0.4734517631E-06      0.4137018219E-05
          0                 6           1            64    1     1       0.4581133866E-06      69    4    1        -0.3521618197E-07      0.2663760049E-06

    ------------------------------------------------
       NWT REQUIRED            6 OUTER ITERATIONS 
       AND A TOTAL OF         11 INNER ITERATIONS.
    ------------------------------------------------

 NO OUTPUT CONTROL FOR STRESS PERIOD    4   TIME STEP   24
 
 SOLVING FOR HEAD 
                                                   Max.-Head-Change                         Max.-Flux-Residual
  Residual-Control   Outer-Iter.   Inner-Iter.     Column Row Layer    Maximum-Head-Change  Column Row Layer    Maximum-Flux-Residual          L2-NORM 
          0                 1           3            65    1     1      -0.2404503698E+00      64    1    1        -0.5245675369E-02      0.6952421893E-01
          0                 2           2            65    1     1       0.2229840936E-01      64    1    1         0.5240639047E-03      0.6752896628E-02
          0                 3           2            64    7     1      -0.1861027404E-02      64    7    1        -0.4717872500E-04      0.6237644503E-03
          0                 4           2            64    7     1       0.1379914189E-03      68    4    1        -0.5230583341E-05      0.5332418895E-04
          0                 5           1            64    1     1      -0.8940596463E-05      68    4    1         0.5048214788E-06      0.4081257268E-05
          0                 6           1            64    1     1       0.4768221955E-06      68    4    1        -0.3805501336E-07      0.2618314189E-06

    ------------------------------------------------
       NWT REQUIRED            6 OUTER ITERATIONS 
       AND A TOTAL OF         11 INNER ITERATIONS.
    ------------------------------------------------

 NO OUTPUT CONTROL FOR STRESS PERIOD    4   TIME STEP   25
 
 SOLVING FOR HEAD 
                                                   Max.-Head-Change                         Max.-Flux-Residual
  Residual-Control   Outer-Iter.   Inner-Iter.     Column Row Layer    Maximum-Head-Change  Column Row Layer    Maximum-Flux-Residual          L2-NORM 
          0                 1           3            65    1     1      -0.2558792313E+00      65    1    1        -0.5100188107E-02      0.6788943716E-01
          0                 2           2            64    1     1       0.2357723145E-01      65    1    1         0.5094752580E-03      0.6602803932E-02
          0                 3           2            64    7     1      -0.1958863329E-02      65    1    1        -0.4586750318E-04      0.6125173578E-03
          0                 4           2            64    7     1       0.1445431866E-03      67    4    1        -0.5463924676E-05      0.5263668625E-04
          0                 5           1            64    1     1      -0.9313632384E-05      67    4    1         0.5200765791E-06      0.4047559147E-05
          0                 6           1            64    1     1       0.4872573528E-06      66    4    1        -0.3914204072E-07      0.2584673829E-06

    ------------------------------------------------
       NWT REQUIRED            6 OUTER ITERATIONS 
       AND A TOTAL OF         11 INNER ITERATIONS.
    ------------------------------------------------

 NO OUTPUT CONTROL FOR STRESS PERIOD    4   TIME STEP   26
 
 SOLVING FOR HEAD 
                                                   Max.-Head-Change                         Max.-Flux-Residual
  Residual-Control   Outer-Iter.   Inner-Iter.     Column Row Layer    Maximum-Head-Change  Column Row Layer    Maximum-Flux-Residual          L2-NORM 
          0                 1           3            65    1     1      -0.2703698819E+00      65    1    1        -0.4937596079E-02      0.6639408317E-01
          0                 2           2            64    1     1       0.2475288825E-01      65    1    1         0.4930775357E-03      0.6475198063E-02
          0                 3           2            64    1     1      -0.2043284158E-02      65    1    1        -0.4439410794E-04      0.6046397130E-03
          0                 4           2            64    1     1       0.1497764145E-03      66    4    1        -0.5350656828E-05      0.5233023012E-04
          0                 5           1            64    1     1      -0.9578607706E-05      65    4    1         0.5178046081E-06      0.4046643423E-05
          0                 6           1            63    1     1       0.4956294739E-06      66    4    1        -0.3865232756E-07      0.2570240270E-06

    ------------------------------------------------
       NWT REQUIRED            6 OUTER ITERATIONS 
       AND A TOTAL OF         11 INNER ITERATIONS.
    ------------------------------------------------

 NO OUTPUT CONTROL FOR STRESS PERIOD    4   TIME STEP   27
 
 SOLVING FOR HEAD 
                                                   Max.-Head-Change                         Max.-Flux-Residual
  Residual-Control   Outer-Iter.   Inner-Iter.     Column Row Layer    Maximum-Head-Change  Column Row Layer    Maximum-Flux-Residual          L2-NORM 
          0                 1           3            65    7     1      -0.2859084127E+00      65    1    1        -0.4746579564E-02      0.6480879322E-01
          0                 2           3            65    7     1       0.2582686925E-01      65    1    1         0.4739552684E-03      0.6315524886E-02
          0                 3           2            65    7     1      -0.2095755746E-02      65    1    1        -0.4267453346E-04      0.5925384368E-03
          0                 4           2            65    7     1       0.1509679733E-03      64    4    1        -0.5242402995E-05      0.5162983651E-04
          0                 5           1            41    7     1      -0.9558084467E-05      64    4    1         0.5020355083E-06      0.4016868843E-05
          0                 6           1            41    7     1       0.4845774968E-06      64    4    1        -0.3773589796E-07      0.2536735406E-06

    ------------------------------------------------
       NWT REQUIRED            6 OUTER ITERATIONS 
       AND A TOTAL OF         12 INNER ITERATIONS.
    ------------------------------------------------

 NO OUTPUT CONTROL FOR STRESS PERIOD    4   TIME STEP   28
 
 SOLVING FOR HEAD 
                                                   Max.-Head-Change                         Max.-Flux-Residual
  Residual-Control   Outer-Iter.   Inner-Iter.     Column Row Layer    Maximum-Head-Change  Column Row Layer    Maximum-Flux-Residual          L2-NORM 
          0                 1           3            66    7     1      -0.3052889344E+00      65    7    1        -0.4566455945E-02      0.6328585050E-01
          0                 2           3            66    7     1       0.2747079488E-01      65    7    1         0.4559968300E-03      0.6165537196E-02
          0                 3           2            66    7     1      -0.2219037232E-02      65    7    1        -0.4105854776E-04      0.5805346659E-03
          0                 4           2            66    7     1       0.1590005986E-03      63    4    1        -0.4915072591E-05      0.5082903256E-04
          0                 5           1            65    1     1      -0.9908047137E-05      63    4    1         0.4707570973E-06      0.3972297086E-05
          0                 6           1            42    7     1       0.4776653176E-06      66    4    1        -0.3537779492E-07      0.2486351412E-06

    ------------------------------------------------
       NWT REQUIRED            6 OUTER ITERATIONS 
       AND A TOTAL OF         12 INNER ITERATIONS.
    ------------------------------------------------

 NO OUTPUT CONTROL FOR STRESS PERIOD    4   TIME STEP   29
 
 SOLVING FOR HEAD 
                                                   Max.-Head-Change                         Max.-Flux-Residual
  Residual-Control   Outer-Iter.   Inner-Iter.     Column Row Layer    Maximum-Head-Change  Column Row Layer    Maximum-Flux-Residual          L2-NORM 
          0                 1           3            66    7     1      -0.3259650858E+00      66    7    1        -0.4434149807E-02      0.6191512331E-01
          0                 2           3            66    1     1       0.2927780921E-01      66    1    1         0.4428288230E-03      0.6032604707E-02
          0                 3           2            66    7     1      -0.2359852672E-02      66    1    1        -0.3987367533E-04      0.5700698232E-03
          0                 4           2            66    7     1       0.1685977299E-03      41    4    1        -0.4561469904E-05      0.5015568614E-04
          0                 5           1            66    1     1      -0.1042955752E-04      66    4    1         0.4518971508E-06      0.3936944678E-05
          0                 6           1            65    1     1       0.4669381271E-06      66    4    1        -0.3465339660E-07      0.2435464603E-06

    ------------------------------------------------
       NWT REQUIRED            6 OUTER ITERATIONS 
       AND A TOTAL OF         12 INNER ITERATIONS.
    ------------------------------------------------

 NO OUTPUT CONTROL FOR STRESS PERIOD    4   TIME STEP   30



 STREAM LISTING     PERIOD      4   STEP       30

 LAYER ROW COL. STREAM  RCH.   FLOW INTO    STREAM     FLOW OUT OF   OVRLND.    DIRECT     STREAM      STREAM      STREAM     STREAM  STREAMBED   FLOW TO   CHNG. UNSAT. 
                SEG.NO.  NO.   STRM. RCH.    LOSS       STRM. RCH.   RUNOFF     PRECIP       ET         HEAD        DEPTH      WIDTH  CONDCTNC.   WAT. TAB.

   1    4    1     1     1    1.7850E+01  4.7593E-03   1.7845E+01  0.000E+00  0.000E+00  0.000E+00  1.43063E+02  3.213E+00  5.656E+00  1.282E-03  4.219E-03  5.514E-04
   1    4    2     1     2    1.7845E+01  4.7583E-03   1.7840E+01  0.000E+00  0.000E+00  0.000E+00  1.42762E+02  3.212E+00  5.656E+00  1.282E-03  4.218E-03  5.511E-04
   1    4    3     1     3    1.7840E+01  4.7572E-03   1.7836E+01  0.000E+00  0.000E+00  0.000E+00  1.42462E+02  3.212E+00  5.655E+00  1.282E-03  4.218E-03  5.509E-04
   1    4    4     1     4    1.7836E+01  4.7562E-03   1.7831E+01  0.000E+00  0.000E+00  0.000E+00  1.42161E+02  3.211E+00  5.655E+00  1.282E-03  4.216E-03  5.509E-04
   1    4    5     1     5    1.7831E+01  4.7551E-03   1.7826E+01  0.000E+00  0.000E+00  0.000E+00  1.41861E+02  3.211E+00  5.654E+00  1.281E-03  4.215E-03  5.512E-04
   1    4    6     1     6    1.7826E+01  4.7541E-03   1.7821E+01  0.000E+00  0.000E+00  0.000E+00  1.41560E+02  3.210E+00  5.654E+00  1.281E-03  4.214E-03  5.516E-04
   1    4    7     1     7    1.7821E+01  4.7530E-03   1.7817E+01  0.000E+00  0.000E+00  0.000E+00  1.41260E+02  3.210E+00  5.653E+00  1.281E-03  4.212E-03  5.522E-04
   1    4    8     1     8    1.7817E+01  4.7520E-03   1.7812E+01  0.000E+00  0.000E+00  0.000E+00  1.40960E+02  3.210E+00  5.653E+00  1.281E-03  4.210E-03  5.531E-04
   1    4    9     1     9    1.7812E+01  4.7510E-03   1.7807E+01  0.000E+00  0.000E+00  0.000E+00  1.40659E+02  3.209E+00  5.652E+00  1.281E-03  4.208E-03  5.542E-04
   1    4   10     1    10    1.7807E+01  4.7499E-03   1.7802E+01  0.000E+00  0.000E+00  0.000E+00  1.40359E+02  3.209E+00  5.652E+00  1.281E-03  4.205E-03  5.556E-04
   1    4   11     1    11    1.7802E+01  4.7489E-03   1.7798E+01  0.000E+00  0.000E+00  0.000E+00  1.40058E+02  3.208E+00  5.651E+00  1.281E-03  4.203E-03  5.574E-04
   1    4   12     1    12    1.7798E+01  4.7478E-03   1.7793E+01  0.000E+00  0.000E+00  0.000E+00  1.39758E+02  3.208E+00  5.651E+00  1.280E-03  4.199E-03  5.596E-04
   1    4   13     1    13    1.7793E+01  4.7468E-03   1.7788E+01  0.000E+00  0.000E+00  0.000E+00  1.39457E+02  3.207E+00  5.650E+00  1.280E-03  4.196E-03  5.621E-04
   1    4   14     1    14    1.7788E+01  4.7457E-03   1.7783E+01  0.000E+00  0.000E+00  0.000E+00  1.39157E+02  3.207E+00  5.649E+00  1.280E-03  4.192E-03  5.652E-04
   1    4   15     1    15    1.7783E+01  4.7447E-03   1.7779E+01  0.000E+00  0.000E+00  0.000E+00  1.38857E+02  3.207E+00  5.649E+00  1.280E-03  4.187E-03  5.689E-04
   1    4   16     1    16    1.7779E+01  4.7436E-03   1.7774E+01  0.000E+00  0.000E+00  0.000E+00  1.38556E+02  3.206E+00  5.648E+00  1.280E-03  4.182E-03  5.731E-04
   1    4   17     1    17    1.7774E+01  4.7426E-03   1.7769E+01  0.000E+00  0.000E+00  0.000E+00  1.38256E+02  3.206E+00  5.648E+00  1.280E-03  4.176E-03  5.779E-04
   1    4   18     1    18    1.7769E+01  4.7415E-03   1.7764E+01  0.000E+00  0.000E+00  0.000E+00  1.37955E+02  3.205E+00  5.647E+00  1.280E-03  4.169E-03  5.835E-04
   1    4   19     1    19    1.7764E+01  4.7405E-03   1.7760E+01  0.000E+00  0.000E+00  0.000E+00  1.37655E+02  3.205E+00  5.647E+00  1.280E-03  4.162E-03  5.898E-04
   1    4   20     1    20    1.7760E+01  4.7395E-03   1.7755E+01  0.000E+00  0.000E+00  0.000E+00  1.37355E+02  3.205E+00  5.646E+00  1.279E-03  4.154E-03  5.969E-04
   1    4   21     1    21    1.7755E+01  4.7384E-03   1.7750E+01  0.000E+00  0.000E+00  0.000E+00  1.37054E+02  3.204E+00  5.646E+00  1.279E-03  4.145E-03  6.048E-04
   1    4   22     1    22    1.7750E+01  4.7374E-03   1.7746E+01  0.000E+00  0.000E+00  0.000E+00  1.36754E+02  3.204E+00  5.645E+00  1.279E-03  4.135E-03  6.136E-04
   1    4   23     1    23    1.7746E+01  4.7363E-03   1.7741E+01  0.000E+00  0.000E+00  0.000E+00  1.36453E+02  3.203E+00  5.645E+00  1.279E-03  4.124E-03  6.232E-04
   1    4   24     1    24    1.7741E+01  4.7353E-03   1.7736E+01  0.000E+00  0.000E+00  0.000E+00  1.36153E+02  3.203E+00  5.644E+00  1.279E-03  4.113E-03  6.338E-04
   1    4   25     1    25    1.7736E+01  4.7342E-03   1.7731E+01  0.000E+00  0.000E+00  0.000E+00  1.35852E+02  3.202E+00  5.644E+00  1.279E-03  4.100E-03  6.452E-04
   1    4   26     1    26    1.7731E+01  4.7332E-03   1.7727E+01  0.000E+00  0.000E+00  0.000E+00  1.35552E+02  3.202E+00  5.643E+00  1.279E-03  4.087E-03  6.575E-04
   1    4   27     1    27    1.7727E+01  4.7321E-03   1.7722E+01  0.000E+00  0.000E+00  0.000E+00  1.35252E+02  3.202E+00  5.643E+00  1.278E-03  4.073E-03  6.706E-04
   1    4   28     1    28    1.7722E+01  4.7311E-03   1.7717E+01  0.000E+00  0.000E+00  0.000E+00  1.34951E+02  3.201E+00  5.642E+00  1.278E-03  4.058E-03  6.844E-04
   1    4   29     1    29    1.7717E+01  4.7301E-03   1.7712E+01  0.000E+00  0.000E+00  0.000E+00  1.34651E+02  3.201E+00  5.642E+00  1.278E-03  4.042E-03  6.989E-04
   1    4   30     1    30    1.7712E+01  4.7290E-03   1.7708E+01  0.000E+00  0.000E+00  0.000E+00  1.34350E+02  3.200E+00  5.641E+00  1.278E-03  4.026E-03  7.138E-04
   1    4   31     1    31    1.7708E+01  4.7280E-03   1.7703E+01  0.000E+00  0.000E+00  0.000E+00  1.34050E+02  3.200E+00  5.641E+00  1.278E-03  4.010E-03  7.290E-04
   1    4   32     1    32    1.7703E+01  4.7269E-03   1.7698E+01  0.000E+00  0.000E+00  0.000E+00  1.33749E+02  3.199E+00  5.640E+00  1.278E-03  3.994E-03  7.443E-04
   1    4   33     1    33    1.7698E+01  4.7259E-03   1.7693E+01  0.000E+00  0.000E+00  0.000E+00  1.33449E+02  3.199E+00  5.640E+00  1.278E-03  3.978E-03  7.595E-04
   1    4   34     1    34    1.7693E+01  4.7248E-03   1.7689E+01  0.000E+00  0.000E+00  0.000E+00  1.33149E+02  3.199E+00  5.639E+00  1.277E-03  3.962E-03  7.741E-04
   1    4   35     1    35    1.7689E+01  4.7238E-03   1.7684E+01  0.000E+00  0.000E+00  0.000E+00  1.32848E+02  3.198E+00  5.639E+00  1.277E-03  3.947E-03  7.877E-04
   1    4   36     1    36    1.7684E+01  4.7228E-03   1.7679E+01  0.000E+00  0.000E+00  0.000E+00  1.32548E+02  3.198E+00  5.638E+00  1.277E-03  3.934E-03  8.000E-04
   1    4   37     1    37    1.7679E+01  4.7217E-03   1.7675E+01  0.000E+00  0.000E+00  0.000E+00  1.32247E+02  3.197E+00  5.638E+00  1.277E-03  3.923E-03  8.104E-04
   1    4   38     1    38    1.7675E+01  4.7207E-03   1.7670E+01  0.000E+00  0.000E+00  0.000E+00  1.31947E+02  3.197E+00  5.637E+00  1.277E-03  3.914E-03  8.183E-04
   1    4   39     1    39    1.7670E+01  4.7196E-03   1.7665E+01  0.000E+00  0.000E+00  0.000E+00  1.31647E+02  3.197E+00  5.637E+00  1.277E-03  3.908E-03  8.226E-04
   1    4   40     1    40    1.7665E+01  4.7186E-03   1.7660E+01  0.000E+00  0.000E+00  0.000E+00  1.31346E+02  3.196E+00  5.636E+00  1.277E-03  3.907E-03  8.228E-04
   1    4   41     1    41    1.7660E+01  4.7176E-03   1.7656E+01  0.000E+00  0.000E+00  0.000E+00  1.31046E+02  3.196E+00  5.636E+00  1.276E-03  3.893E-03  8.360E-04
   1    4   42     1    42    1.7656E+01  4.7165E-03   1.7651E+01  0.000E+00  0.000E+00  0.000E+00  1.30745E+02  3.195E+00  5.635E+00  1.276E-03  3.421E-03  1.307E-03
   1    4   43     1    43    1.7651E+01  4.7155E-03   1.7646E+01  0.000E+00  0.000E+00  0.000E+00  1.30445E+02  3.195E+00  5.635E+00  1.276E-03  2.903E-03  1.824E-03
   1    4   44     1    44    1.7646E+01  4.7144E-03   1.7642E+01  0.000E+00  0.000E+00  0.000E+00  1.30144E+02  3.194E+00  5.634E+00  1.276E-03  2.864E-03  1.862E-03
   1    4   45     1    45    1.7642E+01  4.7134E-03   1.7637E+01  0.000E+00  0.000E+00  0.000E+00  1.29844E+02  3.194E+00  5.634E+00  1.276E-03  2.879E-03  1.846E-03
   1    4   46     1    46    1.7637E+01  4.7124E-03   1.7632E+01  0.000E+00  0.000E+00  0.000E+00  1.29544E+02  3.194E+00  5.633E+00  1.276E-03  2.897E-03  1.826E-03
   1    4   47     1    47    1.7632E+01  4.7113E-03   1.7627E+01  0.000E+00  0.000E+00  0.000E+00  1.29243E+02  3.193E+00  5.633E+00  1.276E-03  2.919E-03  1.804E-03
   1    4   48     1    48    1.7627E+01  4.7103E-03   1.7623E+01  0.000E+00  0.000E+00  0.000E+00  1.28943E+02  3.193E+00  5.632E+00  1.276E-03  2.941E-03  1.780E-03
   1    4   49     1    49    1.7623E+01  4.7092E-03   1.7618E+01  0.000E+00  0.000E+00  0.000E+00  1.28642E+02  3.192E+00  5.632E+00  1.275E-03  2.964E-03  1.757E-03
   1    4   50     1    50    1.7618E+01  4.7082E-03   1.7613E+01  0.000E+00  0.000E+00  0.000E+00  1.28342E+02  3.192E+00  5.631E+00  1.275E-03  2.984E-03  1.736E-03
   1    4   51     1    51    1.7613E+01  4.7072E-03   1.7609E+01  0.000E+00  0.000E+00  0.000E+00  1.28042E+02  3.192E+00  5.631E+00  1.275E-03  3.002E-03  1.717E-03
   1    4   52     1    52    1.7609E+01  4.7061E-03   1.7604E+01  0.000E+00  0.000E+00  0.000E+00  1.27741E+02  3.191E+00  5.630E+00  1.275E-03  3.011E-03  1.707E-03
   1    4   53     1    53    1.7604E+01  4.7051E-03   1.7599E+01  0.000E+00  0.000E+00  0.000E+00  1.27441E+02  3.191E+00  5.630E+00  1.275E-03  3.009E-03  1.707E-03
   1    4   54     1    54    1.7599E+01  4.7040E-03   1.7594E+01  0.000E+00  0.000E+00  0.000E+00  1.27140E+02  3.190E+00  5.629E+00  1.275E-03  2.998E-03  1.717E-03
   1    4   55     1    55    1.7594E+01  4.7030E-03   1.7590E+01  0.000E+00  0.000E+00  0.000E+00  1.26840E+02  3.190E+00  5.629E+00  1.275E-03  2.978E-03  1.737E-03
   1    4   56     1    56    1.7590E+01  4.7020E-03   1.7585E+01  0.000E+00  0.000E+00  0.000E+00  1.26539E+02  3.189E+00  5.628E+00  1.274E-03  2.956E-03  1.757E-03
   1    4   57     1    57    1.7585E+01  4.7009E-03   1.7580E+01  0.000E+00  0.000E+00  0.000E+00  1.26239E+02  3.189E+00  5.628E+00  1.274E-03  2.932E-03  1.781E-03
   1    4   58     1    58    1.7580E+01  4.6999E-03   1.7576E+01  0.000E+00  0.000E+00  0.000E+00  1.25939E+02  3.189E+00  5.627E+00  1.274E-03  2.907E-03  1.804E-03
   1    4   59     1    59    1.7576E+01  4.6989E-03   1.7571E+01  0.000E+00  0.000E+00  0.000E+00  1.25638E+02  3.188E+00  5.627E+00  1.274E-03  2.884E-03  1.826E-03
   1    4   60     1    60    1.7571E+01  4.6978E-03   1.7566E+01  0.000E+00  0.000E+00  0.000E+00  1.25338E+02  3.188E+00  5.626E+00  1.274E-03  2.865E-03  1.844E-03
   1    4   61     1    61    1.7566E+01  4.6968E-03   1.7562E+01  0.000E+00  0.000E+00  0.000E+00  1.25037E+02  3.187E+00  5.626E+00  1.274E-03  3.612E-03  1.097E-03
   1    4   62     1    62    1.7562E+01  4.6957E-03   1.7557E+01  0.000E+00  0.000E+00  0.000E+00  1.24737E+02  3.187E+00  5.625E+00  1.274E-03  3.895E-03  8.122E-04
   1    4   63     1    63    1.7557E+01  4.6947E-03   1.7552E+01  0.000E+00  0.000E+00  0.000E+00  1.24437E+02  3.186E+00  5.625E+00  1.273E-03  3.878E-03  8.284E-04
   1    4   64     1    64    1.7552E+01  4.6937E-03   1.7548E+01  0.000E+00  0.000E+00  0.000E+00  1.24136E+02  3.186E+00  5.624E+00  1.273E-03  3.866E-03  8.386E-04
   1    4   65     1    65    1.7548E+01  4.6926E-03   1.7543E+01  0.000E+00  0.000E+00  0.000E+00  1.23836E+02  3.186E+00  5.624E+00  1.273E-03  3.860E-03  8.442E-04
   1    4   66     1    66    1.7543E+01  4.6916E-03   1.7538E+01  0.000E+00  0.000E+00  0.000E+00  1.23535E+02  3.185E+00  5.623E+00  1.273E-03  3.857E-03  8.460E-04
   1    4   67     1    67    1.7538E+01  4.6906E-03   1.7533E+01  0.000E+00  0.000E+00  0.000E+00  1.23235E+02  3.185E+00  5.623E+00  1.273E-03  3.857E-03  8.446E-04
   1    4   68     1    68    1.7533E+01  4.6895E-03   1.7529E+01  0.000E+00  0.000E+00  0.000E+00  1.22934E+02  3.184E+00  5.622E+00  1.273E-03  3.860E-03  8.405E-04
   1    4   69     1    69    1.7529E+01  4.6885E-03   1.7524E+01  0.000E+00  0.000E+00  0.000E+00  1.22634E+02  3.184E+00  5.622E+00  1.273E-03  3.866E-03  8.343E-04
   1    4   70     1    70    1.7524E+01  4.6875E-03   1.7519E+01  0.000E+00  0.000E+00  0.000E+00  1.22334E+02  3.184E+00  5.621E+00  1.273E-03  3.872E-03  8.266E-04
   1    4   71     1    71    1.7519E+01  4.6864E-03   1.7515E+01  0.000E+00  0.000E+00  0.000E+00  1.22033E+02  3.183E+00  5.621E+00  1.272E-03  3.880E-03  8.178E-04
   1    4   72     1    72    1.7515E+01  4.6854E-03   1.7510E+01  0.000E+00  0.000E+00  0.000E+00  1.21733E+02  3.183E+00  5.620E+00  1.272E-03  3.888E-03  8.083E-04
   1    4   73     1    73    1.7510E+01  4.6843E-03   1.7505E+01  0.000E+00  0.000E+00  0.000E+00  1.21432E+02  3.182E+00  5.620E+00  1.272E-03  3.897E-03  7.986E-04
   1    4   74     1    74    1.7505E+01  4.6833E-03   1.7501E+01  0.000E+00  0.000E+00  0.000E+00  1.21132E+02  3.182E+00  5.619E+00  1.272E-03  3.906E-03  7.888E-04
   1    4   75     1    75    1.7501E+01  4.6823E-03   1.7496E+01  0.000E+00  0.000E+00  0.000E+00  1.20831E+02  3.181E+00  5.619E+00  1.272E-03  3.914E-03  7.793E-04
   1    4   76     1    76    1.7496E+01  4.6812E-03   1.7491E+01  0.000E+00  0.000E+00  0.000E+00  1.20531E+02  3.181E+00  5.618E+00  1.272E-03  3.923E-03  7.701E-04
   1    4   77     1    77    1.7491E+01  4.6802E-03   1.7487E+01  0.000E+00  0.000E+00  0.000E+00  1.20231E+02  3.181E+00  5.618E+00  1.272E-03  3.930E-03  7.613E-04
   1    4   78     1    78    1.7487E+01  4.6792E-03   1.7482E+01  0.000E+00  0.000E+00  0.000E+00  1.19930E+02  3.180E+00  5.617E+00  1.271E-03  3.938E-03  7.530E-04
   1    4   79     1    79    1.7482E+01  4.6781E-03   1.7477E+01  0.000E+00  0.000E+00  0.000E+00  1.19630E+02  3.180E+00  5.617E+00  1.271E-03  3.944E-03  7.453E-04
   1    4   80     1    80    1.7477E+01  4.6771E-03   1.7473E+01  0.000E+00  0.000E+00  0.000E+00  1.19329E+02  3.179E+00  5.616E+00  1.271E-03  3.950E-03  7.381E-04
   1    4   81     1    81    1.7473E+01  4.6761E-03   1.7468E+01  0.000E+00  0.000E+00  0.000E+00  1.19029E+02  3.179E+00  5.616E+00  1.271E-03  3.956E-03  7.312E-04
   1    4   82     1    82    1.7468E+01  4.6750E-03   1.7463E+01  0.000E+00  0.000E+00  0.000E+00  1.18729E+02  3.179E+00  5.615E+00  1.271E-03  3.962E-03  7.248E-04
   1    4   83     1    83    1.7463E+01  4.6740E-03   1.7459E+01  0.000E+00  0.000E+00  0.000E+00  1.18428E+02  3.178E+00  5.615E+00  1.271E-03  3.967E-03  7.185E-04
   1    4   84     1    84    1.7459E+01  4.6730E-03   1.7454E+01  0.000E+00  0.000E+00  0.000E+00  1.18128E+02  3.178E+00  5.614E+00  1.271E-03  3.972E-03  7.123E-04
   1    4   85     1    85    1.7454E+01  4.6719E-03   1.7449E+01  0.000E+00  0.000E+00  0.000E+00  1.17827E+02  3.177E+00  5.614E+00  1.270E-03  3.977E-03  7.061E-04
   1    4   86     1    86    1.7449E+01  4.6709E-03   1.7445E+01  0.000E+00  0.000E+00  0.000E+00  1.17527E+02  3.177E+00  5.613E+00  1.270E-03  3.983E-03  6.997E-04
   1    4   87     1    87    1.7445E+01  4.6699E-03   1.7440E+01  0.000E+00  0.000E+00  0.000E+00  1.17226E+02  3.176E+00  5.613E+00  1.270E-03  3.988E-03  6.929E-04
   1    4   88     1    88    1.7440E+01  4.6688E-03   1.7435E+01  0.000E+00  0.000E+00  0.000E+00  1.16926E+02  3.176E+00  5.612E+00  1.270E-03  3.995E-03  6.855E-04
   1    4   89     1    89    1.7435E+01  4.6678E-03   1.7431E+01  0.000E+00  0.000E+00  0.000E+00  1.16626E+02  3.176E+00  5.612E+00  1.270E-03  4.002E-03  6.776E-04
   1    4   90     1    90    1.7431E+01  4.6668E-03   1.7426E+01  0.000E+00  0.000E+00  0.000E+00  1.16325E+02  3.175E+00  5.611E+00  1.270E-03  4.009E-03  6.688E-04
   1    4   91     1    91    1.7426E+01  4.6657E-03   1.7421E+01  0.000E+00  0.000E+00  0.000E+00  1.16025E+02  3.175E+00  5.611E+00  1.270E-03  4.018E-03  6.592E-04
   1    4   92     1    92    1.7421E+01  4.6647E-03   1.7417E+01  0.000E+00  0.000E+00  0.000E+00  1.15724E+02  3.174E+00  5.610E+00  1.270E-03  4.028E-03  6.486E-04
   1    4   93     1    93    1.7417E+01  4.6637E-03   1.7412E+01  0.000E+00  0.000E+00  0.000E+00  1.15424E+02  3.174E+00  5.610E+00  1.269E-03  4.038E-03  6.370E-04
   1    4   94     1    94    1.7412E+01  4.6627E-03   1.7407E+01  0.000E+00  0.000E+00  0.000E+00  1.15124E+02  3.174E+00  5.609E+00  1.269E-03  4.050E-03  6.244E-04
   1    4   95     1    95    1.7407E+01  4.6616E-03   1.7403E+01  0.000E+00  0.000E+00  0.000E+00  1.14823E+02  3.173E+00  5.609E+00  1.269E-03  4.062E-03  6.108E-04
   1    4   96     1    96    1.7403E+01  4.6606E-03   1.7398E+01  0.000E+00  0.000E+00  0.000E+00  1.14523E+02  3.173E+00  5.608E+00  1.269E-03  4.076E-03  5.964E-04
   1    4   97     1    97    1.7398E+01  4.6596E-03   1.7393E+01  0.000E+00  0.000E+00  0.000E+00  1.14222E+02  3.172E+00  5.608E+00  1.269E-03  4.090E-03  5.813E-04
   1    4   98     1    98    1.7393E+01  4.6585E-03   1.7389E+01  0.000E+00  0.000E+00  0.000E+00  1.13922E+02  3.172E+00  5.607E+00  1.269E-03  4.104E-03  5.656E-04
   1    4   99     1    99    1.7389E+01  4.6575E-03   1.7384E+01  0.000E+00  0.000E+00  0.000E+00  1.13621E+02  3.171E+00  5.607E+00  1.269E-03  4.119E-03  5.498E-04
   1    4  100     1   100    1.7384E+01  4.6565E-03   1.7379E+01  0.000E+00  0.000E+00  0.000E+00  1.13321E+02  3.171E+00  5.606E+00  1.268E-03  4.134E-03  5.337E-04



1
  VOLUMETRIC BUDGET FOR UNSATURATED ZONE BENEATH STREAMS AT END OF TIME STEP    30 STRESS PERIOD   4
  ------------------------------------------------------------------------------------------------

    CUMULATIVE VOLUMES             L**3    RATES FOR THIS TIME STEP         L**3/T
    ------------------                     ------------------------


          STREAM LOSS =      1935675.6250            STREAM LOSS =            0.4708
    CHANGE IN STORAGE =       947992.6250      CHANGE IN STORAGE =        8.9243E-02
       RECHARGE TO GW =       990597.9375         RECHARGE TO GW =            0.3827

             TOTAL IN =      1935675.6250               TOTAL IN =            0.4708

            TOTAL OUT =      1938590.5000              TOTAL OUT =            0.4719

             IN - OUT =        -2914.8750               IN - OUT =       -1.1320E-03

  PERCENT DISCREPANCY =           -0.04      PERCENT DISCREPANCY =            -0.06



1
  VOLUMETRIC BUDGET FOR ENTIRE MODEL AT END OF TIME STEP   30, STRESS PERIOD   4
  ------------------------------------------------------------------------------

     CUMULATIVE VOLUMES      L**3       RATES FOR THIS TIME STEP      L**3/T
     ------------------                 ------------------------

           IN:                                      IN:
           ---                                      ---
             STORAGE     =    30197460.0000               STORAGE     =           1.2750
       CONSTANT HEAD     =           0.0000         CONSTANT HEAD     =           0.0000
               WELLS     =           0.0000                 WELLS     =           0.0000
     HEAD DEP BOUNDS     =           0.0000       HEAD DEP BOUNDS     =           0.0000
      STREAM LEAKAGE     =      990598.0625        STREAM LEAKAGE     =           0.3827

                TOTAL IN =    31188058.0000                  TOTAL IN =           1.6576

          OUT:                                     OUT:
          ----                                     ----
             STORAGE     =      347546.9375               STORAGE     =       4.8586E-02
       CONSTANT HEAD     =           0.0000         CONSTANT HEAD     =           0.0000
               WELLS     =    23639040.0000                 WELLS     =           1.2400
     HEAD DEP BOUNDS     =     7201470.0000       HEAD DEP BOUNDS     =           0.3690
      STREAM LEAKAGE     =           0.0000        STREAM LEAKAGE     =           0.0000

               TOTAL OUT =    31188056.0000                 TOTAL OUT =           1.6576

                IN - OUT =           2.0000                  IN - OUT =      -2.3842E-07

     PERCENT DISCREPANCY =           0.00         PERCENT DISCREPANCY =          -0.00






         TIME SUMMARY AT END OF TIME STEP   30 IN STRESS PERIOD    4
                    SECONDS     MINUTES      HOURS       DAYS        YEARS
                    -----------------------------------------------------------
   TIME STEP LENGTH 2.49961E+05  4166.0      69.434      2.8931     7.92080E-03
 STRESS PERIOD TIME 2.59200E+06  43200.      720.00      30.000     8.21355E-02
         TOTAL TIME 1.03680E+07 1.72800E+05  2880.0      120.00     0.32854    
1
1
                            STRESS PERIOD NO.    5, LENGTH =   2592000.    
                            -----------------------------------------------

                              NUMBER OF TIME STEPS =    30

                               MULTIPLIER FOR DELT =     1.100

                            INITIAL TIME STEP SIZE =   15757.40    

 REUSING NON-PARAMETER WELLS FROM LAST STRESS PERIOD

      1 WELL 

 REUSING NON-PARAMETER GHB CELLS FROM LAST STRESS PERIOD

      7 GHB CELLS



 CLASSIFICATION & COUNT OF STREAM SEGMENTS BASED ON SOURCE OF INFLOW:

                HEADWATER     DIVERSION     RECEIVES TRIBUTARY FLOW
                ---------     ---------     -----------------------
                     1              0               0



                    INPUT DATA FOR EACH STREAM SEGMENT
 ---------------------------------------------------------------------------------------------

 SEGMENT    SEG.     INFLOW   OVERLAND   STREAM    STREAM   ICALC  OUTFLOW  DIVERSION PRIORITY
    NO.    LENGTH     RATE     RUNOFF      ET       PPT.    METH.  TO SEG.  FROM SEG.    NO.

      1  2.000E+04 2.026E+01 0.000E+00 0.000E+00 0.000E+00    2        0        0        0


         STREAMBED PROPERTIES AND STREAM DIMENSIONS

 SEGMENT     BED HYD. COND.      BED THICKNESS     ELEV.-TOP OF BED     WIDTH OF STREAM     DEPTH OF STREAM    STREAM ROUGHNESS
    No.     UPPER     LOWER     UPPER     LOWER     UPPER     LOWER     UPPER     LOWER     UPPER     LOWER   CHANNEL      BANK

     1  3.500E-07 3.500E-07                                                                                 3.000E-02 4.000E-02

  EIGHT POINT CROSS-SECTION DATA FOR SEGMENTS WITH ICALC = 2
    X VALUES X VALUES START FROM LEFT SIDE LOOKING DOWNSTREAM

     SEGMENT NO.        X1        X2        X3        X4        X5        X6        X7        X8
            1      0.000E+00 2.000E+00 4.000E+00 6.000E+00 8.000E+00 1.000E+01 1.200E+01 1.400E+01

    Z VALUES ARE RELATIVE TO STREAMBED ELEVATION

     SEGMENT NO.          Z1        Z2        Z3        Z4        Z5        Z6        Z7        Z8
            1      6.000E+00 4.500E+00 3.500E+00 0.000E+00 3.000E-01 3.500E+00 4.500E+00 6.000E+00



 
 SOLVING FOR HEAD 
                                                   Max.-Head-Change                         Max.-Flux-Residual
  Residual-Control   Outer-Iter.   Inner-Iter.     Column Row Layer    Maximum-Head-Change  Column Row Layer    Maximum-Flux-Residual          L2-NORM 
          0                 1           2            50    3     1       0.2463521342E+00      50    3    1         0.9910870512E-01      0.1526796246E+00
          0                 2           2            50    3     1      -0.2378890805E-01      50    3    1        -0.9958650394E-02      0.1532565042E-01
          0                 3           2            50    3     1       0.2076218561E-02      50    3    1         0.8958932058E-03      0.1392684228E-02
          0                 4           2            50    3     1      -0.1623117651E-03      50    3    1        -0.7176355087E-04      0.1127517320E-03
          0                 5           1            50    3     1       0.1119199066E-04      50    3    1         0.5044895161E-05      0.7990172971E-05
          0                 6           1            50    3     1      -0.6678022136E-06      50    3    1        -0.3056990732E-06      0.4866104757E-06

    ------------------------------------------------
       NWT REQUIRED            6 OUTER ITERATIONS 
       AND A TOTAL OF         10 INNER ITERATIONS.
    ------------------------------------------------

 NO OUTPUT CONTROL FOR STRESS PERIOD    5   TIME STEP    1
 
 SOLVING FOR HEAD 
                                                   Max.-Head-Change                         Max.-Flux-Residual
  Residual-Control   Outer-Iter.   Inner-Iter.     Column Row Layer    Maximum-Head-Change  Column Row Layer    Maximum-Flux-Residual          L2-NORM 
          0                 1           2            50    3     1       0.1547966502E+00      50    3    1         0.5127882214E-01      0.9696871296E-01
          0                 2           2            50    3     1      -0.1461156594E-01      50    3    1        -0.5152748195E-02      0.9520615389E-02
          0                 3           2            50    3     1       0.1251902589E-02      50    3    1         0.4635328322E-03      0.8671723655E-03
          0                 4           1            50    3     1      -0.9648160728E-04      50    3    1        -0.3713041038E-04      0.7080418893E-04
          0                 5           1            50    3     1       0.6583966694E-05      50    3    1         0.2610192482E-05      0.5057026139E-05
          0                 6           1            50    3     1      -0.3901097085E-06      50    3    1        -0.1581653191E-06      0.3096337266E-06

    ------------------------------------------------
       NWT REQUIRED            6 OUTER ITERATIONS 
       AND A TOTAL OF          9 INNER ITERATIONS.
    ------------------------------------------------

 NO OUTPUT CONTROL FOR STRESS PERIOD    5   TIME STEP    2
 
 SOLVING FOR HEAD 
                                                   Max.-Head-Change                         Max.-Flux-Residual
  Residual-Control   Outer-Iter.   Inner-Iter.     Column Row Layer    Maximum-Head-Change  Column Row Layer    Maximum-Flux-Residual          L2-NORM 
          0                 1           2            50    3     1       0.1068325917E+00      50    3    1         0.2936546897E-01      0.7787122610E-01
          0                 2           2            50    3     1      -0.9925835110E-02      50    3    1        -0.2947782473E-02      0.7551159784E-02
          0                 3           2            50    3     1       0.8390258922E-03      50    3    1         0.2651990194E-03      0.6900361838E-03
          0                 4           1            50    3     1      -0.6392885307E-04      50    3    1        -0.2124312371E-04      0.5673552710E-04
          0                 5           1            50    3     1       0.4323501952E-05      50    3    1         0.1493333759E-05      0.4077025920E-05
          0                 6           1            50    3     1      -0.2544966710E-06      50    3    1        -0.9048797089E-07      0.2506440403E-06

    ------------------------------------------------
       NWT REQUIRED            6 OUTER ITERATIONS 
       AND A TOTAL OF          9 INNER ITERATIONS.
    ------------------------------------------------

 NO OUTPUT CONTROL FOR STRESS PERIOD    5   TIME STEP    3
 
 SOLVING FOR HEAD 
                                                   Max.-Head-Change                         Max.-Flux-Residual
  Residual-Control   Outer-Iter.   Inner-Iter.     Column Row Layer    Maximum-Head-Change  Column Row Layer    Maximum-Flux-Residual          L2-NORM 
          0                 1           2            50    3     1       0.7973906671E-01      50    3    1         0.1843469078E-01      0.7033148449E-01
          0                 2           2            50    3     1      -0.7333914962E-02      50    3    1        -0.1848737946E-02      0.6812155646E-02
          0                 3           2            50    3     1       0.6141832609E-03      50    3    1         0.1663376117E-03      0.6252204009E-03
          0                 4           1            50    3     1      -0.4639714986E-04      50    3    1        -0.1332396826E-04      0.5168327557E-04
          0                 5           1            50    3     1       0.3114862285E-05      50    3    1         0.9366251597E-06      0.3730686690E-05
          0                 6           1            50    3     1      -0.1822876282E-06      50    3    1        -0.5675352810E-07      0.2300652160E-06

    ------------------------------------------------
       NWT REQUIRED            6 OUTER ITERATIONS 
       AND A TOTAL OF          9 INNER ITERATIONS.
    ------------------------------------------------

 NO OUTPUT CONTROL FOR STRESS PERIOD    5   TIME STEP    4
 
 SOLVING FOR HEAD 
                                                   Max.-Head-Change                         Max.-Flux-Residual
  Residual-Control   Outer-Iter.   Inner-Iter.     Column Row Layer    Maximum-Head-Change  Column Row Layer    Maximum-Flux-Residual          L2-NORM 
          0                 1           2            50    3     1       0.6349745688E-01      50    3    1         0.1253305489E-01      0.6672331195E-01
          0                 2           2            50    3     1      -0.5802835549E-02      50    3    1        -0.1255999219E-02      0.6471959368E-02
          0                 3           2            50    3     1       0.4828298835E-03      50    3    1         0.1130147169E-03      0.5961794207E-03
          0                 4           1            50    2     1      -0.3751545411E-04      50    3    1        -0.9052643009E-05      0.4949831918E-04
          0                 5           1            50    2     1       0.2581511305E-05      50    3    1         0.6363532599E-06      0.3587069859E-05
          0                 6           1            50    2     1      -0.1536910992E-06      50    3    1        -0.3855808473E-07      0.2218754370E-06

    ------------------------------------------------
       NWT REQUIRED            6 OUTER ITERATIONS 
       AND A TOTAL OF          9 INNER ITERATIONS.
    ------------------------------------------------

 NO OUTPUT CONTROL FOR STRESS PERIOD    5   TIME STEP    5
 
 SOLVING FOR HEAD 
                                                   Max.-Head-Change                         Max.-Flux-Residual
  Residual-Control   Outer-Iter.   Inner-Iter.     Column Row Layer    Maximum-Head-Change  Column Row Layer    Maximum-Flux-Residual          L2-NORM 
          0                 1           2            50    3     1       0.5316891802E-01      50    3    1         0.9073095224E-02      0.6464912945E-01
          0                 2           2            50    2     1      -0.4977465437E-02      50    3    1        -0.9088203922E-03      0.6278265140E-02
          0                 3           2            50    2     1       0.4340161135E-03      50    3    1         0.8177967978E-04      0.5799945179E-03
          0                 4           1            50    2     1      -0.3384656704E-04      50    3    1        -0.6550641316E-05      0.4834276602E-04
          0                 5           1            50    2     1       0.2326513466E-05      50    3    1         0.4604616137E-06      0.3516996535E-05
          0                 6           1            50    2     1      -0.1383705430E-06      50    3    1        -0.2789952092E-07      0.2182483975E-06

    ------------------------------------------------
       NWT REQUIRED            6 OUTER ITERATIONS 
       AND A TOTAL OF          9 INNER ITERATIONS.
    ------------------------------------------------

 NO OUTPUT CONTROL FOR STRESS PERIOD    5   TIME STEP    6
 
 SOLVING FOR HEAD 
                                                   Max.-Head-Change                         Max.-Flux-Residual
  Residual-Control   Outer-Iter.   Inner-Iter.     Column Row Layer    Maximum-Head-Change  Column Row Layer    Maximum-Flux-Residual          L2-NORM 
          0                 1           2            50    2     1       0.4701447382E-01      50    3    1         0.6903480570E-02      0.6325759620E-01
          0                 2           2            50    2     1      -0.4528418261E-02      50    3    1        -0.6912775476E-03      0.6150720835E-02
          0                 3           2            50    1     1       0.3957069556E-03      50    3    1         0.6220628326E-04      0.5697667566E-03
          0                 4           1            50    1     1      -0.3115556250E-04      50    3    1        -0.4982775900E-05      0.4767284915E-04
          0                 5           1            50    1     1       0.2156792107E-05      50    3    1         0.3502381016E-06      0.3481883456E-05
          0                 6           1            50    1     1      -0.1289167131E-06      50    3    1        -0.2122019538E-07      0.2167976869E-06

    ------------------------------------------------
       NWT REQUIRED            6 OUTER ITERATIONS 
       AND A TOTAL OF          9 INNER ITERATIONS.
    ------------------------------------------------

 NO OUTPUT CONTROL FOR STRESS PERIOD    5   TIME STEP    7
 
 SOLVING FOR HEAD 
                                                   Max.-Head-Change                         Max.-Flux-Residual
  Residual-Control   Outer-Iter.   Inner-Iter.     Column Row Layer    Maximum-Head-Change  Column Row Layer    Maximum-Flux-Residual          L2-NORM 
          0                 1           2            50    1     1       0.4330619681E-01      50    2    1         0.5526286538E-02      0.6223912932E-01
          0                 2           2            50    1     1      -0.4234582520E-02      50    2    1        -0.5530606676E-03      0.6051700877E-02
          0                 3           2            50    1     1       0.3733583948E-03      50    2    1         0.4977024783E-04      0.5616489088E-03
          0                 4           1            50    1     1      -0.2936508970E-04      50    2    1        -0.3986645160E-05      0.4716362809E-04
          0                 5           1            50    1     1       0.2030833845E-05      67    4    1         0.2875566771E-06      0.3458973468E-05
          0                 6           1            50    1     1      -0.1212835391E-06      67    4    1        -0.1973407748E-07      0.2161966115E-06

    ------------------------------------------------
       NWT REQUIRED            6 OUTER ITERATIONS 
       AND A TOTAL OF          9 INNER ITERATIONS.
    ------------------------------------------------

 NO OUTPUT CONTROL FOR STRESS PERIOD    5   TIME STEP    8
 
 SOLVING FOR HEAD 
                                                   Max.-Head-Change                         Max.-Flux-Residual
  Residual-Control   Outer-Iter.   Inner-Iter.     Column Row Layer    Maximum-Head-Change  Column Row Layer    Maximum-Flux-Residual          L2-NORM 
          0                 1           2            67    1     1      -0.4315583237E-01      50    1    1         0.4621284080E-02      0.6144683183E-01
          0                 2           2            66    1     1       0.4091248196E-02      50    1    1        -0.4624619294E-03      0.5976609933E-02
          0                 3           2            66    1     1      -0.3522383788E-03      50    1    1         0.4161790150E-04      0.5557989978E-03
          0                 4           1            50    1     1      -0.2750440062E-04      50    1    1        -0.3333626521E-05      0.4684198205E-04
          0                 5           1            50    1     1       0.1899632396E-05      67    4    1         0.2970739956E-06      0.3449624413E-05
          0                 6           1            50    1     1      -0.1133172669E-06      67    4    1        -0.2054775194E-07      0.2164523847E-06

    ------------------------------------------------
       NWT REQUIRED            6 OUTER ITERATIONS 
       AND A TOTAL OF          9 INNER ITERATIONS.
    ------------------------------------------------

 NO OUTPUT CONTROL FOR STRESS PERIOD    5   TIME STEP    9
 
 SOLVING FOR HEAD 
                                                   Max.-Head-Change                         Max.-Flux-Residual
  Residual-Control   Outer-Iter.   Inner-Iter.     Column Row Layer    Maximum-Head-Change  Column Row Layer    Maximum-Flux-Residual          L2-NORM 
          0                 1           2            67    1     1      -0.4727957719E-01      67    1    1        -0.4198586130E-02      0.6078225484E-01
          0                 2           2            66    1     1       0.4465290339E-02      67    1    1         0.4198408389E-03      0.5912539709E-02
          0                 3           2            66    1     1      -0.3831184502E-03      67    1    1        -0.3778685054E-04      0.5507075960E-03
          0                 4           1            66    1     1       0.2950106713E-04      67    4    1        -0.3405557116E-05      0.4657006661E-04
          0                 5           1            66    1     1      -0.2008498126E-05      67    4    1         0.3061756182E-06      0.3443811840E-05
          0                 6           1            66    1     1       0.1186670693E-06      67    4    1        -0.2133869614E-07      0.2169755225E-06

    ------------------------------------------------
       NWT REQUIRED            6 OUTER ITERATIONS 
       AND A TOTAL OF          9 INNER ITERATIONS.
    ------------------------------------------------

 NO OUTPUT CONTROL FOR STRESS PERIOD    5   TIME STEP   10
 
 SOLVING FOR HEAD 
                                                   Max.-Head-Change                         Max.-Flux-Residual
  Residual-Control   Outer-Iter.   Inner-Iter.     Column Row Layer    Maximum-Head-Change  Column Row Layer    Maximum-Flux-Residual          L2-NORM 
          0                 1           2            67    1     1      -0.5177886267E-01      67    1    1        -0.4182822960E-02      0.6019460886E-01
          0                 2           2            67    1     1       0.4873626608E-02      67    1    1         0.4182613666E-03      0.5856252102E-02
          0                 3           2            66    1     1      -0.4164919266E-03      67    1    1        -0.3764488887E-04      0.5464428199E-03
          0                 4           1            66    1     1       0.3195675471E-04      67    4    1        -0.3474118461E-05      0.4637212247E-04
          0                 5           1            66    1     1      -0.2168112993E-05      67    4    1         0.3148120840E-06      0.3443434293E-05
          0                 6           1            66    1     1       0.1277039681E-06      67    4    1        -0.2210140337E-07      0.2178419611E-06

    ------------------------------------------------
       NWT REQUIRED            6 OUTER ITERATIONS 
       AND A TOTAL OF          9 INNER ITERATIONS.
    ------------------------------------------------

 NO OUTPUT CONTROL FOR STRESS PERIOD    5   TIME STEP   11
 
 SOLVING FOR HEAD 
                                                   Max.-Head-Change                         Max.-Flux-Residual
  Residual-Control   Outer-Iter.   Inner-Iter.     Column Row Layer    Maximum-Head-Change  Column Row Layer    Maximum-Flux-Residual          L2-NORM 
          0                 1           2            67    1     1      -0.5668422135E-01      67    1    1        -0.4165629677E-02      0.5960886372E-01
          0                 2           2            67    1     1       0.5317724995E-02      67    1    1         0.4165383916E-03      0.5805442300E-02
          0                 3           2            67    1     1      -0.4526951605E-03      67    1    1        -0.3749003586E-04      0.5428104811E-03
          0                 4           1            66    1     1       0.3459333363E-04      67    4    1        -0.3537301499E-05      0.4622067937E-04
          0                 5           1            66    1     1      -0.2338078042E-05      67    4    1         0.3229352288E-06      0.3445681433E-05
          0                 6           1            66    1     1       0.1372391290E-06      67    4    1        -0.2283024614E-07      0.2188471734E-06

    ------------------------------------------------
       NWT REQUIRED            6 OUTER ITERATIONS 
       AND A TOTAL OF          9 INNER ITERATIONS.
    ------------------------------------------------

 NO OUTPUT CONTROL FOR STRESS PERIOD    5   TIME STEP   12
 
 SOLVING FOR HEAD 
                                                   Max.-Head-Change                         Max.-Flux-Residual
  Residual-Control   Outer-Iter.   Inner-Iter.     Column Row Layer    Maximum-Head-Change  Column Row Layer    Maximum-Flux-Residual          L2-NORM 
          0                 1           2            67    1     1      -0.6202721446E-01      67    1    1        -0.4146882757E-02      0.5903602630E-01
          0                 2           2            67    1     1       0.5799900045E-02      67    1    1         0.4146594613E-03      0.5748973088E-02
          0                 3           2            67    1     1      -0.4919240728E-03      67    1    1        -0.3732117299E-04      0.5382579522E-03
          0                 4           1            67    7     1       0.3743170074E-04      67    4    1        -0.3594806543E-05      0.4597906496E-04
          0                 5           1            66    1     1      -0.2518869413E-05      67    4    1         0.3304911758E-06      0.3441157627E-05
          0                 6           1            66    1     1       0.1472797510E-06      67    4    1        -0.2351906048E-07      0.2194596545E-06

    ------------------------------------------------
       NWT REQUIRED            6 OUTER ITERATIONS 
       AND A TOTAL OF          9 INNER ITERATIONS.
    ------------------------------------------------

 NO OUTPUT CONTROL FOR STRESS PERIOD    5   TIME STEP   13
 
 SOLVING FOR HEAD 
                                                   Max.-Head-Change                         Max.-Flux-Residual
  Residual-Control   Outer-Iter.   Inner-Iter.     Column Row Layer    Maximum-Head-Change  Column Row Layer    Maximum-Flux-Residual          L2-NORM 
          0                 1           2            67    1     1      -0.6782624265E-01      67    1    1        -0.4126404159E-02      0.5844348974E-01
          0                 2           2            67    1     1       0.6321552435E-02      67    1    1         0.4126060107E-03      0.5701908554E-02
          0                 3           2            67    1     1      -0.5341857108E-03      67    1    1        -0.3713663700E-04      0.5362485287E-03
          0                 4           1            67    7     1       0.4048484625E-04      79    4    1        -0.3708216241E-05      0.4601695076E-04
          0                 5           1            67    7     1      -0.2711212715E-05      69    4    1         0.3384987437E-06      0.3456133012E-05
          0                 6           1            66    1     1       0.1578259087E-06      69    4    1        -0.2416714651E-07      0.2210335453E-06

    ------------------------------------------------
       NWT REQUIRED            6 OUTER ITERATIONS 
       AND A TOTAL OF          9 INNER ITERATIONS.
    ------------------------------------------------

 NO OUTPUT CONTROL FOR STRESS PERIOD    5   TIME STEP   14
 
 SOLVING FOR HEAD 
                                                   Max.-Head-Change                         Max.-Flux-Residual
  Residual-Control   Outer-Iter.   Inner-Iter.     Column Row Layer    Maximum-Head-Change  Column Row Layer    Maximum-Flux-Residual          L2-NORM 
          0                 1           2            67    1     1      -0.7396752797E-01      67    1    1        -0.4103132269E-02      0.5782475510E-01
          0                 2           2            67    1     1       0.6869020655E-02      67    1    1         0.4102655085E-03      0.5645927324E-02
          0                 3           2            67    1     1      -0.5781704315E-03      67    1    1        -0.3692635881E-04      0.5327545574E-03
          0                 4           1            67    7     1       0.4363774353E-04      78    4    1        -0.3966165227E-05      0.4590984295E-04
          0                 5           1            66    1     1      -0.2909332443E-05      68    4    1         0.3505135879E-06      0.3460635807E-05
          0                 6           1            66    1     1       0.1686190542E-06      68    4    1        -0.2511758623E-07      0.2220272351E-06

    ------------------------------------------------
       NWT REQUIRED            6 OUTER ITERATIONS 
       AND A TOTAL OF          9 INNER ITERATIONS.
    ------------------------------------------------

 NO OUTPUT CONTROL FOR STRESS PERIOD    5   TIME STEP   15
 
 SOLVING FOR HEAD 
                                                   Max.-Head-Change                         Max.-Flux-Residual
  Residual-Control   Outer-Iter.   Inner-Iter.     Column Row Layer    Maximum-Head-Change  Column Row Layer    Maximum-Flux-Residual          L2-NORM 
          0                 1           2            67    1     1      -0.8056329115E-01      67    1    1        -0.4069124865E-02      0.5719737813E-01
          0                 2           2            67    1     1       0.7457545713E-02      67    1    1         0.4068549955E-03      0.5587042563E-02
          0                 3           2            67    1     1      -0.6253439848E-03      67    1    1        -0.3661975919E-04      0.5285765389E-03
          0                 4           1            67    7     1       0.4699731714E-04      77    4    1        -0.4196895194E-05      0.4572419979E-04
          0                 5           1            67    7     1      -0.3116231702E-05      77    4    1         0.3593955817E-06      0.3458724004E-05
          0                 6           1            66    1     1       0.1796424449E-06      66    4    1        -0.2547359301E-07      0.2226374227E-06

    ------------------------------------------------
       NWT REQUIRED            6 OUTER ITERATIONS 
       AND A TOTAL OF          9 INNER ITERATIONS.
    ------------------------------------------------

 NO OUTPUT CONTROL FOR STRESS PERIOD    5   TIME STEP   16
 
 SOLVING FOR HEAD 
                                                   Max.-Head-Change                         Max.-Flux-Residual
  Residual-Control   Outer-Iter.   Inner-Iter.     Column Row Layer    Maximum-Head-Change  Column Row Layer    Maximum-Flux-Residual          L2-NORM 
          0                 1           2            67    1     1      -0.8783890920E-01      67    1    1        -0.4030165322E-02      0.5657149479E-01
          0                 2           2            67    1     1       0.8104172598E-02      67    1    1         0.4029578601E-03      0.5526833819E-02
          0                 3           2            67    1     1      -0.6768734146E-03      76    4    1         0.3741131457E-04      0.5243761596E-03
          0                 4           1            67    7     1       0.5063802523E-04      76    4    1        -0.4395444694E-05      0.4554792480E-04
          0                 5           1            67    7     1      -0.3337511255E-05      76    4    1         0.3809737414E-06      0.3457020992E-05
          0                 6           1            67    7     1       0.1911797800E-06      76    4    1        -0.2600975080E-07      0.2231908785E-06

    ------------------------------------------------
       NWT REQUIRED            6 OUTER ITERATIONS 
       AND A TOTAL OF          9 INNER ITERATIONS.
    ------------------------------------------------

 NO OUTPUT CONTROL FOR STRESS PERIOD    5   TIME STEP   17
 
 SOLVING FOR HEAD 
                                                   Max.-Head-Change                         Max.-Flux-Residual
  Residual-Control   Outer-Iter.   Inner-Iter.     Column Row Layer    Maximum-Head-Change  Column Row Layer    Maximum-Flux-Residual          L2-NORM 
          0                 1           2            67    1     1      -0.9578288427E-01      67    1    1        -0.3995777415E-02      0.5593141287E-01
          0                 2           2            67    1     1       0.8810293999E-02      67    1    1         0.3995138217E-03      0.5466449568E-02
          0                 3           2            67    1     1      -0.7331117861E-03      75    4    1         0.3804144162E-04      0.5202755258E-03
          0                 4           1            67    1     1       0.5460243046E-04      75    4    1        -0.4561175544E-05      0.4538260919E-04
          0                 5           1            67    7     1      -0.3575933311E-05      75    4    1         0.3992566278E-06      0.3455033519E-05
          0                 6           1            67    7     1       0.2035071415E-06      75    4    1        -0.2742485705E-07      0.2236441241E-06

    ------------------------------------------------
       NWT REQUIRED            6 OUTER ITERATIONS 
       AND A TOTAL OF          9 INNER ITERATIONS.
    ------------------------------------------------

 NO OUTPUT CONTROL FOR STRESS PERIOD    5   TIME STEP   18
 
 SOLVING FOR HEAD 
                                                   Max.-Head-Change                         Max.-Flux-Residual
  Residual-Control   Outer-Iter.   Inner-Iter.     Column Row Layer    Maximum-Head-Change  Column Row Layer    Maximum-Flux-Residual          L2-NORM 
          0                 1           2            67    1     1      -0.1043857879E+00      67    1    1        -0.3962054740E-02      0.5524424579E-01
          0                 2           2            67    1     1       0.9574265204E-02      67    1    1         0.3961326401E-03      0.5410670941E-02
          0                 3           2            67    1     1      -0.7938407110E-03      75    4    1         0.4167386416E-04      0.5168379363E-03
          0                 4           1            67    1     1       0.5886676117E-04      75    4    1        -0.4881971449E-05      0.4525435277E-04
          0                 5           1            67    1     1      -0.3828569176E-05      75    4    1         0.4227975339E-06      0.3452275808E-05
          0                 6           1            67    7     1       0.2163220863E-06      75    4    1        -0.2883840722E-07      0.2238406158E-06

    ------------------------------------------------
       NWT REQUIRED            6 OUTER ITERATIONS 
       AND A TOTAL OF          9 INNER ITERATIONS.
    ------------------------------------------------

 NO OUTPUT CONTROL FOR STRESS PERIOD    5   TIME STEP   19
 
 SOLVING FOR HEAD 
                                                   Max.-Head-Change                         Max.-Flux-Residual
  Residual-Control   Outer-Iter.   Inner-Iter.     Column Row Layer    Maximum-Head-Change  Column Row Layer    Maximum-Flux-Residual          L2-NORM 
          0                 1           2            68    1     1      -0.1136714141E+00      67    1    1        -0.3926312687E-02      0.5452044562E-01
          0                 2           2            67    1     1       0.1039633625E-01      67    1    1         0.3925469015E-03      0.5344293568E-02
          0                 3           2            67    1     1      -0.8590314498E-03      74    4    1         0.4429410156E-04      0.5122109459E-03
          0                 4           1            67    1     1       0.6342432318E-04      74    4    1        -0.5168762755E-05      0.4503345572E-04
          0                 5           1            67    1     1      -0.4093905020E-05      74    4    1         0.4501684856E-06      0.3442408434E-05
          0                 6           1            67    7     1       0.2295182142E-06      74    4    1        -0.3090620737E-07      0.2235381352E-06

    ------------------------------------------------
       NWT REQUIRED            6 OUTER ITERATIONS 
       AND A TOTAL OF          9 INNER ITERATIONS.
    ------------------------------------------------

 NO OUTPUT CONTROL FOR STRESS PERIOD    5   TIME STEP   20
 
 SOLVING FOR HEAD 
                                                   Max.-Head-Change                         Max.-Flux-Residual
  Residual-Control   Outer-Iter.   Inner-Iter.     Column Row Layer    Maximum-Head-Change  Column Row Layer    Maximum-Flux-Residual          L2-NORM 
          0                 1           2            68    1     1      -0.1237862127E+00      68    1    1        -0.3887958605E-02      0.5380829551E-01
          0                 2           2            68    7     1       0.1128554111E-01      68    7    1         0.3887065274E-03      0.5270698909E-02
          0                 3           2            68    7     1      -0.9287246371E-03      73    4    1         0.4541995942E-04      0.5066635797E-03
          0                 4           1            67    7     1       0.6827263680E-04      73    4    1        -0.5352842198E-05      0.4473899416E-04
          0                 5           1            67    7     1      -0.4370338164E-05      73    4    1         0.4660628719E-06      0.3425666491E-05
          0                 6           1            67    7     1       0.2430147391E-06      73    4    1        -0.3191837550E-07      0.2227081285E-06

    ------------------------------------------------
       NWT REQUIRED            6 OUTER ITERATIONS 
       AND A TOTAL OF          9 INNER ITERATIONS.
    ------------------------------------------------

 NO OUTPUT CONTROL FOR STRESS PERIOD    5   TIME STEP   21
 
 SOLVING FOR HEAD 
                                                   Max.-Head-Change                         Max.-Flux-Residual
  Residual-Control   Outer-Iter.   Inner-Iter.     Column Row Layer    Maximum-Head-Change  Column Row Layer    Maximum-Flux-Residual          L2-NORM 
          0                 1           2            68    1     1      -0.1345964338E+00      68    1    1        -0.3849891034E-02      0.5317379421E-01
          0                 2           2            68    7     1       0.1223507087E-01      68    7    1         0.3848831319E-03      0.5206278882E-02
          0                 3           2            68    7     1      -0.1003366926E-02      72    4    1         0.4604228825E-04      0.5021982076E-03
          0                 4           1            67    7     1       0.7339324961E-04      72    4    1        -0.5492032866E-05      0.4454983577E-04
          0                 5           1            67    7     1      -0.4654563534E-05      72    4    1         0.4858514266E-06      0.3415365763E-05
          0                 6           1            67    7     1       0.2564907277E-06      72    4    1        -0.3370580259E-07      0.2221580082E-06

    ------------------------------------------------
       NWT REQUIRED            6 OUTER ITERATIONS 
       AND A TOTAL OF          9 INNER ITERATIONS.
    ------------------------------------------------

 NO OUTPUT CONTROL FOR STRESS PERIOD    5   TIME STEP   22
 
 SOLVING FOR HEAD 
                                                   Max.-Head-Change                         Max.-Flux-Residual
  Residual-Control   Outer-Iter.   Inner-Iter.     Column Row Layer    Maximum-Head-Change  Column Row Layer    Maximum-Flux-Residual          L2-NORM 
          0                 1           3            68    1     1      -0.1460553866E+00      68    1    1        -0.3806481490E-02      0.5255606839E-01
          0                 2           2            68    1     1       0.1322682455E-01      68    1    1         0.3805206433E-03      0.5147014936E-02
          0                 3           2            68    7     1      -0.1080306457E-02      71    4    1         0.4617034311E-04      0.4981076334E-03
          0                 4           1            67    7     1       0.7871708998E-04      71    4    1        -0.5580062130E-05      0.4436960036E-04
          0                 5           1            67    1     1      -0.4937050790E-05      71    4    1         0.4906617619E-06      0.3400842284E-05
          0                 6           1            67    7     1       0.2692865551E-06      71    4    1        -0.3375294710E-07      0.2210955507E-06

    ------------------------------------------------
       NWT REQUIRED            6 OUTER ITERATIONS 
       AND A TOTAL OF         10 INNER ITERATIONS.
    ------------------------------------------------

 NO OUTPUT CONTROL FOR STRESS PERIOD    5   TIME STEP   23
 
 SOLVING FOR HEAD 
                                                   Max.-Head-Change                         Max.-Flux-Residual
  Residual-Control   Outer-Iter.   Inner-Iter.     Column Row Layer    Maximum-Head-Change  Column Row Layer    Maximum-Flux-Residual          L2-NORM 
          0                 1           3            68    1     1      -0.1580832354E+00      68    1    1        -0.3756230561E-02      0.5179577834E-01
          0                 2           2            68    1     1       0.1423240493E-01      68    1    1         0.3754678475E-03      0.5083591254E-02
          0                 3           2            67    7     1      -0.1159249678E-02      71    4    1         0.4677533269E-04      0.4941362980E-03
          0                 4           1            67    1     1       0.8406655177E-04      70    4    1        -0.5610513618E-05      0.4420856933E-04
          0                 5           1            67    1     1      -0.5202875523E-05      70    4    1         0.5047798055E-06      0.3385146653E-05
          0                 6           1            67    1     1       0.2803142472E-06      70    4    1        -0.3536071702E-07      0.2197857260E-06

    ------------------------------------------------
       NWT REQUIRED            6 OUTER ITERATIONS 
       AND A TOTAL OF         10 INNER ITERATIONS.
    ------------------------------------------------

 NO OUTPUT CONTROL FOR STRESS PERIOD    5   TIME STEP   24
 
 SOLVING FOR HEAD 
                                                   Max.-Head-Change                         Max.-Flux-Residual
  Residual-Control   Outer-Iter.   Inner-Iter.     Column Row Layer    Maximum-Head-Change  Column Row Layer    Maximum-Flux-Residual          L2-NORM 
          0                 1           3            68    1     1      -0.1705818269E+00      68    1    1        -0.3697787693E-02      0.5102535933E-01
          0                 2           2            67    1     1       0.1526150940E-01      68    1    1         0.3695890327E-03      0.5012552812E-02
          0                 3           2            67    7     1      -0.1235948341E-02      70    4    1         0.4815161092E-04      0.4890611342E-03
          0                 4           1            67    1     1       0.8904898581E-04      70    4    1        -0.5724042147E-05      0.4393826477E-04
          0                 5           1            67    1     1      -0.5421651485E-05      70    4    1         0.5075574876E-06      0.3357670726E-05
          0                 6           1            67    1     1       0.2885624040E-06      70    4    1        -0.3514838909E-07      0.2176491767E-06

    ------------------------------------------------
       NWT REQUIRED            6 OUTER ITERATIONS 
       AND A TOTAL OF         10 INNER ITERATIONS.
    ------------------------------------------------

 NO OUTPUT CONTROL FOR STRESS PERIOD    5   TIME STEP   25
 
 SOLVING FOR HEAD 
                                                   Max.-Head-Change                         Max.-Flux-Residual
  Residual-Control   Outer-Iter.   Inner-Iter.     Column Row Layer    Maximum-Head-Change  Column Row Layer    Maximum-Flux-Residual          L2-NORM 
          0                 1           3            68    1     1      -0.1834387512E+00      68    1    1        -0.3630430005E-02      0.5024405697E-01
          0                 2           2            67    7     1       0.1637948804E-01      68    1    1         0.3628105770E-03      0.4937364563E-02
          0                 3           2            67    7     1      -0.1322536740E-02      69    4    1         0.4942385982E-04      0.4825214753E-03
          0                 4           1            67    1     1       0.9485188575E-04      69    4    1        -0.5892616624E-05      0.4346681208E-04
          0                 5           1            67    1     1      -0.5672291247E-05      69    4    1         0.5086403725E-06      0.3307598867E-05
          0                 6           1            67    1     1       0.2976546387E-06      69    4    1        -0.3442891483E-07      0.2137904254E-06

    ------------------------------------------------
       NWT REQUIRED            6 OUTER ITERATIONS 
       AND A TOTAL OF         10 INNER ITERATIONS.
    ------------------------------------------------

 NO OUTPUT CONTROL FOR STRESS PERIOD    5   TIME STEP   26
 
 SOLVING FOR HEAD 
                                                   Max.-Head-Change                         Max.-Flux-Residual
  Residual-Control   Outer-Iter.   Inner-Iter.     Column Row Layer    Maximum-Head-Change  Column Row Layer    Maximum-Flux-Residual          L2-NORM 
          0                 1           3            69    1     1      -0.1966946731E+00      68    1    1        -0.3549831965E-02      0.4944189198E-01
          0                 2           2            67    1     1       0.1736818861E-01      68    1    1         0.3547077838E-03      0.4864501026E-02
          0                 3           2            67    1     1      -0.1388410470E-02      68    4    1         0.4831162043E-04      0.4776052823E-03
          0                 4           1            66    1     1       0.9909882059E-04      68    4    1        -0.5800931412E-05      0.4322533343E-04
          0                 5           1            66    1     1      -0.5806005315E-05      68    4    1         0.5204316906E-06      0.3275295500E-05
          0                 6           1            65    1     1       0.3025417179E-06      68    4    1        -0.3628387191E-07      0.2109635340E-06

    ------------------------------------------------
       NWT REQUIRED            6 OUTER ITERATIONS 
       AND A TOTAL OF         10 INNER ITERATIONS.
    ------------------------------------------------

 NO OUTPUT CONTROL FOR STRESS PERIOD    5   TIME STEP   27
 
 SOLVING FOR HEAD 
                                                   Max.-Head-Change                         Max.-Flux-Residual
  Residual-Control   Outer-Iter.   Inner-Iter.     Column Row Layer    Maximum-Head-Change  Column Row Layer    Maximum-Flux-Residual          L2-NORM 
          0                 1           3            69    7     1      -0.2124507634E+00      69    1    1        -0.3466829456E-02      0.4863917555E-01
          0                 2           2            69    7     1       0.1834907208E-01      69    1    1         0.3464478606E-03      0.4802970543E-02
          0                 3           2            66    7     1      -0.1451512170E-02      67    4    1         0.4632530860E-04      0.4746682253E-03
          0                 4           1            66    1     1       0.1025432327E-03      67    4    1        -0.5608776874E-05      0.4318569472E-04
          0                 5           1            65    1     1      -0.5901031639E-05      68    4    1         0.4862980312E-06      0.3252200154E-05
          0                 6           1            65    1     1       0.3058247577E-06      68    4    1        -0.3392856485E-07      0.2085150616E-06

    ------------------------------------------------
       NWT REQUIRED            6 OUTER ITERATIONS 
       AND A TOTAL OF         10 INNER ITERATIONS.
    ------------------------------------------------

 NO OUTPUT CONTROL FOR STRESS PERIOD    5   TIME STEP   28
 
 SOLVING FOR HEAD 
                                                   Max.-Head-Change                         Max.-Flux-Residual
  Residual-Control   Outer-Iter.   Inner-Iter.     Column Row Layer    Maximum-Head-Change  Column Row Layer    Maximum-Flux-Residual          L2-NORM 
          0                 1           3            70    7     1      -0.2294808735E+00      69    1    1        -0.3405837376E-02      0.4772572058E-01
          0                 2           3            69    7     1       0.1972131192E-01      69    1    1         0.3403228472E-03      0.4710745345E-02
          0                 3           2            69    7     1      -0.1526766210E-02      66    4    1         0.4388070027E-04      0.4678164458E-03
          0                 4           1            65    1     1       0.1049687435E-03      66    4    1        -0.5348273067E-05      0.4278719606E-04
          0                 5           1            65    1     1      -0.5889637722E-05      66    4    1         0.4845327268E-06      0.3201239470E-05
          0                 6           1            65    1     1       0.3012424815E-06      66    4    1        -0.3383438241E-07      0.2044572344E-06

    ------------------------------------------------
       NWT REQUIRED            6 OUTER ITERATIONS 
       AND A TOTAL OF         11 INNER ITERATIONS.
    ------------------------------------------------

 NO OUTPUT CONTROL FOR STRESS PERIOD    5   TIME STEP   29
 
 SOLVING FOR HEAD 
                                                   Max.-Head-Change                         Max.-Flux-Residual
  Residual-Control   Outer-Iter.   Inner-Iter.     Column Row Layer    Maximum-Head-Change  Column Row Layer    Maximum-Flux-Residual          L2-NORM 
          0                 1           3            70    7     1      -0.2478570618E+00      70    7    1        -0.3345898006E-02      0.4686396913E-01
          0                 2           3            70    7     1       0.2123394674E-01      70    7    1         0.3343216087E-03      0.4630977846E-02
          0                 3           2            70    7     1      -0.1635575375E-02      70    4    1         0.4128855040E-04      0.4623692637E-03
          0                 4           2            69    7     1       0.1122160600E-03      70    4    1        -0.5177685271E-05      0.4249874618E-04
          0                 5           1            69    7     1      -0.6740087523E-05      70    4    1         0.4746648763E-06      0.3397158540E-05
          0                 6           1            64    1     1       0.3244393537E-06      70    4    1        -0.3418704253E-07      0.2162141912E-06

    ------------------------------------------------
       NWT REQUIRED            6 OUTER ITERATIONS 
       AND A TOTAL OF         12 INNER ITERATIONS.
    ------------------------------------------------

 OUTPUT CONTROL FOR STRESS PERIOD    5   TIME STEP   30
    PRINT HEAD FOR ALL LAYERS
    SAVE HEAD FOR ALL LAYERS
    PRINT BUDGET
    SAVE BUDGET

            WELLS   PERIOD    5   STEP  30
 WELL      1   LAYER   1   ROW     3   COL    50   RATE   -0.519999    
 WELL      2   LAYER   1   ROW     5   COL    55   RATE   -0.519999    

  HEAD DEP BOUNDS   PERIOD    5   STEP    30
 BOUNDARY      1   LAYER   1   ROW     1   COL   100   RATE   -5.026042E-02
 BOUNDARY      2   LAYER   1   ROW     2   COL   100   RATE   -5.036125E-02
 BOUNDARY      3   LAYER   1   ROW     3   COL   100   RATE   -5.019273E-02
 BOUNDARY      4   LAYER   1   ROW     4   COL   100   RATE   -3.922239E-02
 BOUNDARY      5   LAYER   1   ROW     5   COL   100   RATE   -5.019273E-02
 BOUNDARY      6   LAYER   1   ROW     6   COL   100   RATE   -5.036125E-02
 BOUNDARY      7   LAYER   1   ROW     7   COL   100   RATE   -5.026042E-02



 STREAM LISTING     PERIOD      5   STEP       30

 LAYER ROW COL. STREAM  RCH.   FLOW INTO    STREAM     FLOW OUT OF   OVRLND.    DIRECT     STREAM      STREAM      STREAM     STREAM  STREAMBED   FLOW TO   CHNG. UNSAT. 
                SEG.NO.  NO.   STRM. RCH.    LOSS       STRM. RCH.   RUNOFF     PRECIP       ET         HEAD        DEPTH      WIDTH  CONDCTNC.   WAT. TAB.

   1    4    1     1     1    2.0260E+01  5.2848E-03   2.0255E+01  0.000E+00  0.000E+00  0.000E+00  1.43268E+02  3.418E+00  5.902E+00  1.349E-03  5.300E-03 -1.559E-05
   1    4    2     1     2    2.0255E+01  5.2837E-03   2.0249E+01  0.000E+00  0.000E+00  0.000E+00  1.42967E+02  3.417E+00  5.901E+00  1.349E-03  5.353E-03 -6.976E-05
   1    4    3     1     3    2.0249E+01  5.2825E-03   2.0244E+01  0.000E+00  0.000E+00  0.000E+00  1.42667E+02  3.417E+00  5.901E+00  1.349E-03  5.351E-03 -6.830E-05
   1    4    4     1     4    2.0244E+01  5.2814E-03   2.0239E+01  0.000E+00  0.000E+00  0.000E+00  1.42366E+02  3.416E+00  5.900E+00  1.349E-03  5.348E-03 -6.636E-05
   1    4    5     1     5    2.0239E+01  5.2803E-03   2.0234E+01  0.000E+00  0.000E+00  0.000E+00  1.42066E+02  3.416E+00  5.899E+00  1.348E-03  5.344E-03 -6.403E-05
   1    4    6     1     6    2.0234E+01  5.2791E-03   2.0228E+01  0.000E+00  0.000E+00  0.000E+00  1.41766E+02  3.416E+00  5.899E+00  1.348E-03  5.340E-03 -6.129E-05
   1    4    7     1     7    2.0228E+01  5.2780E-03   2.0223E+01  0.000E+00  0.000E+00  0.000E+00  1.41465E+02  3.415E+00  5.898E+00  1.348E-03  5.336E-03 -5.811E-05
   1    4    8     1     8    2.0223E+01  5.2768E-03   2.0218E+01  0.000E+00  0.000E+00  0.000E+00  1.41165E+02  3.415E+00  5.898E+00  1.348E-03  5.331E-03 -5.444E-05
   1    4    9     1     9    2.0218E+01  5.2757E-03   2.0212E+01  0.000E+00  0.000E+00  0.000E+00  1.40864E+02  3.414E+00  5.897E+00  1.348E-03  5.326E-03 -5.033E-05
   1    4   10     1    10    2.0212E+01  5.2746E-03   2.0207E+01  0.000E+00  0.000E+00  0.000E+00  1.40564E+02  3.414E+00  5.897E+00  1.348E-03  5.321E-03 -4.617E-05
   1    4   11     1    11    2.0207E+01  5.2734E-03   2.0202E+01  0.000E+00  0.000E+00  0.000E+00  1.40263E+02  3.413E+00  5.896E+00  1.348E-03  5.315E-03 -4.145E-05
   1    4   12     1    12    2.0202E+01  5.2723E-03   2.0197E+01  0.000E+00  0.000E+00  0.000E+00  1.39963E+02  3.413E+00  5.896E+00  1.347E-03  5.308E-03 -3.610E-05
   1    4   13     1    13    2.0197E+01  5.2711E-03   2.0191E+01  0.000E+00  0.000E+00  0.000E+00  1.39663E+02  3.413E+00  5.895E+00  1.347E-03  5.301E-03 -3.007E-05
   1    4   14     1    14    2.0191E+01  5.2700E-03   2.0186E+01  0.000E+00  0.000E+00  0.000E+00  1.39362E+02  3.412E+00  5.895E+00  1.347E-03  5.293E-03 -2.335E-05
   1    4   15     1    15    2.0186E+01  5.2689E-03   2.0181E+01  0.000E+00  0.000E+00  0.000E+00  1.39062E+02  3.412E+00  5.894E+00  1.347E-03  5.285E-03 -1.592E-05
   1    4   16     1    16    2.0181E+01  5.2677E-03   2.0176E+01  0.000E+00  0.000E+00  0.000E+00  1.38761E+02  3.411E+00  5.894E+00  1.347E-03  5.275E-03 -7.756E-06
   1    4   17     1    17    2.0176E+01  5.2666E-03   2.0170E+01  0.000E+00  0.000E+00  0.000E+00  1.38461E+02  3.411E+00  5.893E+00  1.347E-03  5.265E-03  1.149E-06
   1    4   18     1    18    2.0170E+01  5.2654E-03   2.0165E+01  0.000E+00  0.000E+00  0.000E+00  1.38160E+02  3.410E+00  5.893E+00  1.347E-03  5.255E-03  1.079E-05
   1    4   19     1    19    2.0165E+01  5.2643E-03   2.0160E+01  0.000E+00  0.000E+00  0.000E+00  1.37860E+02  3.410E+00  5.892E+00  1.346E-03  5.243E-03  2.117E-05
   1    4   20     1    20    2.0160E+01  5.2632E-03   2.0155E+01  0.000E+00  0.000E+00  0.000E+00  1.37559E+02  3.409E+00  5.892E+00  1.346E-03  5.231E-03  3.228E-05
   1    4   21     1    21    2.0155E+01  5.2620E-03   2.0149E+01  0.000E+00  0.000E+00  0.000E+00  1.37259E+02  3.409E+00  5.891E+00  1.346E-03  5.218E-03  4.413E-05
   1    4   22     1    22    2.0149E+01  5.2609E-03   2.0144E+01  0.000E+00  0.000E+00  0.000E+00  1.36959E+02  3.409E+00  5.891E+00  1.346E-03  5.204E-03  5.667E-05
   1    4   23     1    23    2.0144E+01  5.2598E-03   2.0139E+01  0.000E+00  0.000E+00  0.000E+00  1.36658E+02  3.408E+00  5.890E+00  1.346E-03  5.190E-03  6.985E-05
   1    4   24     1    24    2.0139E+01  5.2586E-03   2.0133E+01  0.000E+00  0.000E+00  0.000E+00  1.36358E+02  3.408E+00  5.890E+00  1.346E-03  5.175E-03  8.359E-05
   1    4   25     1    25    2.0133E+01  5.2575E-03   2.0128E+01  0.000E+00  0.000E+00  0.000E+00  1.36057E+02  3.407E+00  5.889E+00  1.346E-03  5.160E-03  9.780E-05
   1    4   26     1    26    2.0128E+01  5.2563E-03   2.0123E+01  0.000E+00  0.000E+00  0.000E+00  1.35757E+02  3.407E+00  5.889E+00  1.345E-03  5.144E-03  1.123E-04
   1    4   27     1    27    2.0123E+01  5.2552E-03   2.0118E+01  0.000E+00  0.000E+00  0.000E+00  1.35456E+02  3.406E+00  5.888E+00  1.345E-03  5.128E-03  1.271E-04
   1    4   28     1    28    2.0118E+01  5.2541E-03   2.0112E+01  0.000E+00  0.000E+00  0.000E+00  1.35156E+02  3.406E+00  5.888E+00  1.345E-03  5.112E-03  1.418E-04
   1    4   29     1    29    2.0112E+01  5.2529E-03   2.0107E+01  0.000E+00  0.000E+00  0.000E+00  1.34856E+02  3.406E+00  5.887E+00  1.345E-03  5.097E-03  1.564E-04
   1    4   30     1    30    2.0107E+01  5.2518E-03   2.0102E+01  0.000E+00  0.000E+00  0.000E+00  1.34555E+02  3.405E+00  5.887E+00  1.345E-03  5.081E-03  1.706E-04
   1    4   31     1    31    2.0102E+01  5.2507E-03   2.0097E+01  0.000E+00  0.000E+00  0.000E+00  1.34255E+02  3.405E+00  5.886E+00  1.345E-03  5.066E-03  1.842E-04
   1    4   32     1    32    2.0097E+01  5.2495E-03   2.0091E+01  0.000E+00  0.000E+00  0.000E+00  1.33954E+02  3.404E+00  5.885E+00  1.345E-03  5.054E-03  1.959E-04
   1    4   33     1    33    2.0091E+01  5.2484E-03   2.0086E+01  0.000E+00  0.000E+00  0.000E+00  1.33654E+02  3.404E+00  5.885E+00  1.344E-03  5.042E-03  2.065E-04
   1    4   34     1    34    2.0086E+01  5.2473E-03   2.0081E+01  0.000E+00  0.000E+00  0.000E+00  1.33353E+02  3.403E+00  5.884E+00  1.344E-03  4.966E-03  2.811E-04
   1    4   35     1    35    2.0081E+01  5.2461E-03   2.0076E+01  0.000E+00  0.000E+00  0.000E+00  1.33053E+02  3.403E+00  5.884E+00  1.344E-03  4.599E-03  6.474E-04
   1    4   36     1    36    2.0076E+01  5.2450E-03   2.0070E+01  0.000E+00  0.000E+00  0.000E+00  1.32753E+02  3.403E+00  5.883E+00  1.344E-03  4.203E-03  1.042E-03
   1    4   37     1    37    2.0070E+01  5.2439E-03   2.0065E+01  0.000E+00  0.000E+00  0.000E+00  1.32452E+02  3.402E+00  5.883E+00  1.344E-03  4.198E-03  1.045E-03
   1    4   38     1    38    2.0065E+01  5.2427E-03   2.0060E+01  0.000E+00  0.000E+00  0.000E+00  1.32152E+02  3.402E+00  5.882E+00  1.344E-03  4.197E-03  1.046E-03
   1    4   39     1    39    2.0060E+01  5.2416E-03   2.0055E+01  0.000E+00  0.000E+00  0.000E+00  1.31851E+02  3.401E+00  5.882E+00  1.344E-03  4.198E-03  1.044E-03
   1    4   40     1    40    2.0055E+01  5.2405E-03   2.0049E+01  0.000E+00  0.000E+00  0.000E+00  1.31551E+02  3.401E+00  5.881E+00  1.343E-03  4.201E-03  1.039E-03
   1    4   41     1    41    2.0049E+01  5.2393E-03   2.0044E+01  0.000E+00  0.000E+00  0.000E+00  1.31250E+02  3.400E+00  5.881E+00  1.343E-03  4.208E-03  1.032E-03
   1    4   42     1    42    2.0044E+01  5.2382E-03   2.0039E+01  0.000E+00  0.000E+00  0.000E+00  1.30950E+02  3.400E+00  5.880E+00  1.343E-03  4.217E-03  1.022E-03
   1    4   43     1    43    2.0039E+01  5.2371E-03   2.0034E+01  0.000E+00  0.000E+00  0.000E+00  1.30650E+02  3.400E+00  5.880E+00  1.343E-03  4.229E-03  1.009E-03
   1    4   44     1    44    2.0034E+01  5.2359E-03   2.0029E+01  0.000E+00  0.000E+00  0.000E+00  1.30349E+02  3.399E+00  5.879E+00  1.343E-03  4.243E-03  9.928E-04
   1    4   45     1    45    2.0029E+01  5.2348E-03   2.0023E+01  0.000E+00  0.000E+00  0.000E+00  1.30049E+02  3.399E+00  5.879E+00  1.343E-03  4.260E-03  9.748E-04
   1    4   46     1    46    2.0023E+01  5.2337E-03   2.0018E+01  0.000E+00  0.000E+00  0.000E+00  1.29748E+02  3.398E+00  5.878E+00  1.343E-03  4.279E-03  9.549E-04
   1    4   47     1    47    2.0018E+01  5.2325E-03   2.0013E+01  0.000E+00  0.000E+00  0.000E+00  1.29448E+02  3.398E+00  5.878E+00  1.342E-03  4.299E-03  9.337E-04
   1    4   48     1    48    2.0013E+01  5.2314E-03   2.0008E+01  0.000E+00  0.000E+00  0.000E+00  1.29147E+02  3.397E+00  5.877E+00  1.342E-03  4.319E-03  9.124E-04
   1    4   49     1    49    2.0008E+01  5.2303E-03   2.0002E+01  0.000E+00  0.000E+00  0.000E+00  1.28847E+02  3.397E+00  5.877E+00  1.342E-03  4.338E-03  8.922E-04
   1    4   50     1    50    2.0002E+01  5.2291E-03   1.9997E+01  0.000E+00  0.000E+00  0.000E+00  1.28546E+02  3.396E+00  5.876E+00  1.342E-03  4.355E-03  8.745E-04
   1    4   51     1    51    1.9997E+01  5.2280E-03   1.9992E+01  0.000E+00  0.000E+00  0.000E+00  1.28246E+02  3.396E+00  5.876E+00  1.342E-03  4.367E-03  8.607E-04
   1    4   52     1    52    1.9992E+01  5.2269E-03   1.9987E+01  0.000E+00  0.000E+00  0.000E+00  1.27946E+02  3.396E+00  5.875E+00  1.342E-03  4.373E-03  8.540E-04
   1    4   53     1    53    1.9987E+01  5.2257E-03   1.9981E+01  0.000E+00  0.000E+00  0.000E+00  1.27645E+02  3.395E+00  5.875E+00  1.342E-03  4.371E-03  8.551E-04
   1    4   54     1    54    1.9981E+01  5.2246E-03   1.9976E+01  0.000E+00  0.000E+00  0.000E+00  1.27345E+02  3.395E+00  5.874E+00  1.341E-03  4.361E-03  8.639E-04
   1    4   55     1    55    1.9976E+01  5.2235E-03   1.9971E+01  0.000E+00  0.000E+00  0.000E+00  1.27044E+02  3.394E+00  5.874E+00  1.341E-03  4.343E-03  8.800E-04
   1    4   56     1    56    1.9971E+01  5.2223E-03   1.9966E+01  0.000E+00  0.000E+00  0.000E+00  1.26744E+02  3.394E+00  5.873E+00  1.341E-03  4.323E-03  8.992E-04
   1    4   57     1    57    1.9966E+01  5.2212E-03   1.9961E+01  0.000E+00  0.000E+00  0.000E+00  1.26443E+02  3.393E+00  5.873E+00  1.341E-03  4.300E-03  9.210E-04
   1    4   58     1    58    1.9961E+01  5.2201E-03   1.9955E+01  0.000E+00  0.000E+00  0.000E+00  1.26143E+02  3.393E+00  5.872E+00  1.341E-03  4.276E-03  9.438E-04
   1    4   59     1    59    1.9955E+01  5.2190E-03   1.9950E+01  0.000E+00  0.000E+00  0.000E+00  1.25843E+02  3.393E+00  5.871E+00  1.341E-03  4.252E-03  9.665E-04
   1    4   60     1    60    1.9950E+01  5.2178E-03   1.9945E+01  0.000E+00  0.000E+00  0.000E+00  1.25542E+02  3.392E+00  5.871E+00  1.341E-03  4.230E-03  9.880E-04
   1    4   61     1    61    1.9945E+01  5.2167E-03   1.9940E+01  0.000E+00  0.000E+00  0.000E+00  1.25242E+02  3.392E+00  5.870E+00  1.340E-03  4.209E-03  1.008E-03
   1    4   62     1    62    1.9940E+01  5.2156E-03   1.9934E+01  0.000E+00  0.000E+00  0.000E+00  1.24941E+02  3.391E+00  5.870E+00  1.340E-03  4.191E-03  1.025E-03
   1    4   63     1    63    1.9934E+01  5.2144E-03   1.9929E+01  0.000E+00  0.000E+00  0.000E+00  1.24641E+02  3.391E+00  5.869E+00  1.340E-03  4.175E-03  1.039E-03
   1    4   64     1    64    1.9929E+01  5.2133E-03   1.9924E+01  0.000E+00  0.000E+00  0.000E+00  1.24340E+02  3.390E+00  5.869E+00  1.340E-03  4.163E-03  1.051E-03
   1    4   65     1    65    1.9924E+01  5.2122E-03   1.9919E+01  0.000E+00  0.000E+00  0.000E+00  1.24040E+02  3.390E+00  5.868E+00  1.340E-03  4.594E-03  6.186E-04
   1    4   66     1    66    1.9919E+01  5.2111E-03   1.9914E+01  0.000E+00  0.000E+00  0.000E+00  1.23740E+02  3.390E+00  5.868E+00  1.340E-03  4.910E-03  3.007E-04
   1    4   67     1    67    1.9914E+01  5.2099E-03   1.9908E+01  0.000E+00  0.000E+00  0.000E+00  1.23439E+02  3.389E+00  5.867E+00  1.340E-03  4.899E-03  3.108E-04
   1    4   68     1    68    1.9908E+01  5.2088E-03   1.9903E+01  0.000E+00  0.000E+00  0.000E+00  1.23139E+02  3.389E+00  5.867E+00  1.339E-03  4.892E-03  3.169E-04
   1    4   69     1    69    1.9903E+01  5.2077E-03   1.9898E+01  0.000E+00  0.000E+00  0.000E+00  1.22838E+02  3.388E+00  5.866E+00  1.339E-03  4.887E-03  3.202E-04
   1    4   70     1    70    1.9898E+01  5.2065E-03   1.9893E+01  0.000E+00  0.000E+00  0.000E+00  1.22538E+02  3.388E+00  5.866E+00  1.339E-03  4.885E-03  3.212E-04
   1    4   71     1    71    1.9893E+01  5.2054E-03   1.9888E+01  0.000E+00  0.000E+00  0.000E+00  1.22237E+02  3.387E+00  5.865E+00  1.339E-03  4.885E-03  3.201E-04
   1    4   72     1    72    1.9888E+01  5.2043E-03   1.9882E+01  0.000E+00  0.000E+00  0.000E+00  1.21937E+02  3.387E+00  5.865E+00  1.339E-03  4.887E-03  3.173E-04
   1    4   73     1    73    1.9882E+01  5.2032E-03   1.9877E+01  0.000E+00  0.000E+00  0.000E+00  1.21637E+02  3.387E+00  5.864E+00  1.339E-03  4.890E-03  3.131E-04
   1    4   74     1    74    1.9877E+01  5.2020E-03   1.9872E+01  0.000E+00  0.000E+00  0.000E+00  1.21336E+02  3.386E+00  5.864E+00  1.339E-03  4.894E-03  3.077E-04
   1    4   75     1    75    1.9872E+01  5.2009E-03   1.9867E+01  0.000E+00  0.000E+00  0.000E+00  1.21036E+02  3.386E+00  5.863E+00  1.338E-03  4.900E-03  3.013E-04
   1    4   76     1    76    1.9867E+01  5.1998E-03   1.9862E+01  0.000E+00  0.000E+00  0.000E+00  1.20735E+02  3.385E+00  5.863E+00  1.338E-03  4.906E-03  2.941E-04
   1    4   77     1    77    1.9862E+01  5.1987E-03   1.9856E+01  0.000E+00  0.000E+00  0.000E+00  1.20435E+02  3.385E+00  5.862E+00  1.338E-03  4.912E-03  2.864E-04
   1    4   78     1    78    1.9856E+01  5.1975E-03   1.9851E+01  0.000E+00  0.000E+00  0.000E+00  1.20134E+02  3.384E+00  5.862E+00  1.338E-03  4.919E-03  2.781E-04
   1    4   79     1    79    1.9851E+01  5.1964E-03   1.9846E+01  0.000E+00  0.000E+00  0.000E+00  1.19834E+02  3.384E+00  5.861E+00  1.338E-03  4.927E-03  2.695E-04
   1    4   80     1    80    1.9846E+01  5.1953E-03   1.9841E+01  0.000E+00  0.000E+00  0.000E+00  1.19534E+02  3.384E+00  5.861E+00  1.338E-03  4.935E-03  2.606E-04
   1    4   81     1    81    1.9841E+01  5.1941E-03   1.9836E+01  0.000E+00  0.000E+00  0.000E+00  1.19233E+02  3.383E+00  5.860E+00  1.338E-03  4.943E-03  2.514E-04
   1    4   82     1    82    1.9836E+01  5.1930E-03   1.9830E+01  0.000E+00  0.000E+00  0.000E+00  1.18933E+02  3.383E+00  5.860E+00  1.337E-03  4.951E-03  2.420E-04
   1    4   83     1    83    1.9830E+01  5.1919E-03   1.9825E+01  0.000E+00  0.000E+00  0.000E+00  1.18632E+02  3.382E+00  5.859E+00  1.337E-03  4.960E-03  2.324E-04
   1    4   84     1    84    1.9825E+01  5.1908E-03   1.9820E+01  0.000E+00  0.000E+00  0.000E+00  1.18332E+02  3.382E+00  5.859E+00  1.337E-03  4.968E-03  2.225E-04
   1    4   85     1    85    1.9820E+01  5.1896E-03   1.9815E+01  0.000E+00  0.000E+00  0.000E+00  1.18031E+02  3.381E+00  5.858E+00  1.337E-03  4.977E-03  2.123E-04
   1    4   86     1    86    1.9815E+01  5.1885E-03   1.9810E+01  0.000E+00  0.000E+00  0.000E+00  1.17731E+02  3.381E+00  5.858E+00  1.337E-03  4.987E-03  2.017E-04
   1    4   87     1    87    1.9810E+01  5.1874E-03   1.9804E+01  0.000E+00  0.000E+00  0.000E+00  1.17430E+02  3.380E+00  5.857E+00  1.337E-03  4.997E-03  1.908E-04
   1    4   88     1    88    1.9804E+01  5.1863E-03   1.9799E+01  0.000E+00  0.000E+00  0.000E+00  1.17130E+02  3.380E+00  5.856E+00  1.337E-03  5.007E-03  1.794E-04
   1    4   89     1    89    1.9799E+01  5.1852E-03   1.9794E+01  0.000E+00  0.000E+00  0.000E+00  1.16830E+02  3.380E+00  5.856E+00  1.337E-03  5.018E-03  1.675E-04
   1    4   90     1    90    1.9794E+01  5.1840E-03   1.9789E+01  0.000E+00  0.000E+00  0.000E+00  1.16529E+02  3.379E+00  5.855E+00  1.336E-03  5.029E-03  1.551E-04
   1    4   91     1    91    1.9789E+01  5.1829E-03   1.9784E+01  0.000E+00  0.000E+00  0.000E+00  1.16229E+02  3.379E+00  5.855E+00  1.336E-03  5.041E-03  1.420E-04
   1    4   92     1    92    1.9784E+01  5.1818E-03   1.9779E+01  0.000E+00  0.000E+00  0.000E+00  1.15928E+02  3.378E+00  5.854E+00  1.336E-03  5.054E-03  1.282E-04
   1    4   93     1    93    1.9779E+01  5.1807E-03   1.9773E+01  0.000E+00  0.000E+00  0.000E+00  1.15628E+02  3.378E+00  5.854E+00  1.336E-03  5.067E-03  1.138E-04
   1    4   94     1    94    1.9773E+01  5.1795E-03   1.9768E+01  0.000E+00  0.000E+00  0.000E+00  1.15327E+02  3.377E+00  5.853E+00  1.336E-03  5.081E-03  9.858E-05
   1    4   95     1    95    1.9768E+01  5.1784E-03   1.9763E+01  0.000E+00  0.000E+00  0.000E+00  1.15027E+02  3.377E+00  5.853E+00  1.336E-03  5.096E-03  8.262E-05
   1    4   96     1    96    1.9763E+01  5.1773E-03   1.9758E+01  0.000E+00  0.000E+00  0.000E+00  1.14727E+02  3.377E+00  5.852E+00  1.336E-03  5.111E-03  6.589E-05
   1    4   97     1    97    1.9758E+01  5.1762E-03   1.9753E+01  0.000E+00  0.000E+00  0.000E+00  1.14426E+02  3.376E+00  5.852E+00  1.335E-03  5.128E-03  4.821E-05
   1    4   98     1    98    1.9753E+01  5.1750E-03   1.9747E+01  0.000E+00  0.000E+00  0.000E+00  1.14126E+02  3.376E+00  5.851E+00  1.335E-03  5.147E-03  2.815E-05
   1    4   99     1    99    1.9747E+01  5.1739E-03   1.9742E+01  0.000E+00  0.000E+00  0.000E+00  1.13825E+02  3.375E+00  5.851E+00  1.335E-03  4.827E-03  3.472E-04
   1    4  100     1   100    1.9742E+01  5.1728E-03   1.9737E+01  0.000E+00  0.000E+00  0.000E+00  1.13525E+02  3.375E+00  5.850E+00  1.335E-03  4.342E-03  8.307E-04



1
  VOLUMETRIC BUDGET FOR UNSATURATED ZONE BENEATH STREAMS AT END OF TIME STEP    30 STRESS PERIOD   5
  ------------------------------------------------------------------------------------------------

    CUMULATIVE VOLUMES             L**3    RATES FOR THIS TIME STEP         L**3/T
    ------------------                     ------------------------


          STREAM LOSS =      3290939.7500            STREAM LOSS =            0.5229
    CHANGE IN STORAGE =      1168512.7500      CHANGE IN STORAGE =        3.8977E-02
       RECHARGE TO GW =      2125346.5000         RECHARGE TO GW =            0.4839

             TOTAL IN =      3290939.7500               TOTAL IN =            0.5229

            TOTAL OUT =      3293859.2500              TOTAL OUT =            0.5229

             IN - OUT =        -2919.5000               IN - OUT =        2.3842E-07

  PERCENT DISCREPANCY =           -0.02      PERCENT DISCREPANCY =             0.00



1
              HEAD IN LAYER   1 AT END OF TIME STEP  30 IN STRESS PERIOD    5
  ---------------------------------------------------------------------------

          1      2      3      4      5      6      7      8      9     10
         11     12     13     14     15     16     17     18     19     20
         21     22     23     24     25     26     27     28     29     30
         31     32     33     34     35     36     37     38     39     40
         41     42     43     44     45     46     47     48     49     50
         51     52     53     54     55     56     57     58     59     60
         61     62     63     64     65     66     67     68     69     70
         71     72     73     74     75     76     77     78     79     80
         81     82     83     84     85     86     87     88     89     90
         91     92     93     94     95     96     97     98     99    100
 .........................................................................
   1   104.8  104.8  104.8  104.8  104.8  104.8  104.7  104.7  104.7  104.6
       104.6  104.5  104.4  104.3  104.2  104.1  104.0  103.8  103.6  103.4
       103.2  102.9  102.6  102.2  101.8  101.4  100.9  100.3   99.7   99.0
        98.2   97.4   96.4   95.4   94.3   93.0   91.7   90.2   88.7   87.0
        85.1   83.1   81.0   78.8   76.4   73.8   71.0   68.0   64.9   61.8
        61.6   61.8   61.9   62.3   63.1   65.4   68.1   70.9   73.5   76.0
        78.3   80.5   82.5   84.4   86.1   87.7   89.1   90.4   91.5   92.5
        93.4   94.2   94.8   95.4   95.8   96.1   96.2   96.3   96.3   96.2
        96.0   95.6   95.2   94.7   94.1   93.4   92.7   91.8   90.8   89.8
        88.7   87.5   86.2   84.8   83.4   81.9   80.3   78.6   76.8   75.0
   2   104.8  104.8  104.8  104.8  104.8  104.8  104.7  104.7  104.7  104.6
       104.6  104.5  104.4  104.3  104.2  104.1  104.0  103.8  103.6  103.4
       103.2  102.9  102.6  102.2  101.8  101.4  100.9  100.3   99.7   99.0
        98.2   97.4   96.4   95.4   94.3   93.0   91.7   90.2   88.7   87.0
        85.1   83.1   81.0   78.8   76.4   73.8   71.0   68.1   64.8   61.2
        61.6   61.8   61.9   62.1   62.9   65.3   68.1   70.8   73.5   76.0
        78.3   80.5   82.5   84.4   86.1   87.7   89.1   90.4   91.5   92.5
        93.4   94.2   94.8   95.4   95.8   96.1   96.3   96.3   96.3   96.2
        96.0   95.6   95.2   94.7   94.1   93.4   92.7   91.8   90.9   89.8
        88.7   87.5   86.2   84.8   83.4   81.9   80.3   78.6   76.8   75.0
   3   104.8  104.8  104.8  104.8  104.8  104.8  104.7  104.7  104.7  104.6
       104.6  104.5  104.4  104.4  104.2  104.1  104.0  103.8  103.6  103.4
       103.2  102.9  102.6  102.3  101.9  101.4  100.9  100.3   99.7   99.0
        98.2   97.4   96.4   95.4   94.3   93.0   91.7   90.2   88.7   87.0
        85.1   83.2   81.0   78.8   76.4   73.8   71.1   68.1   64.8   59.7
        61.5   61.8   61.9   61.9   62.2   65.1   68.0   70.8   73.5   76.0
        78.3   80.5   82.5   84.4   86.1   87.7   89.1   90.4   91.5   92.6
        93.4   94.2   94.8   95.4   95.8   96.1   96.3   96.3   96.3   96.2
        96.0   95.7   95.2   94.7   94.1   93.5   92.7   91.8   90.9   89.8
        88.7   87.5   86.2   84.9   83.4   81.9   80.3   78.6   76.8   75.0
   4   104.8  104.8  104.8  104.8  104.8  104.8  104.8  104.7  104.7  104.6
       104.6  104.5  104.5  104.4  104.3  104.1  104.0  103.8  103.7  103.4
       103.2  102.9  102.6  102.3  101.9  101.4  100.9  100.3   99.7   99.0
        98.2   97.4   96.5   95.4   94.3   93.1   91.7   90.3   88.7   87.0
        85.1   83.2   81.1   78.8   76.4   73.8   71.1   68.2   65.0   61.3
        61.8   61.9   61.8   61.7   61.2   64.8   68.0   70.8   73.5   76.0
        78.3   80.5   82.5   84.4   86.1   87.7   89.1   90.4   91.6   92.6
        93.5   94.2   94.9   95.4   95.8   96.1   96.3   96.4   96.3   96.2
        96.0   95.7   95.3   94.7   94.1   93.5   92.7   91.8   90.9   89.8
        88.7   87.5   86.2   84.9   83.4   81.9   80.3   78.6   76.9   75.0
   5   104.8  104.8  104.8  104.8  104.8  104.8  104.7  104.7  104.7  104.6
       104.6  104.5  104.4  104.4  104.2  104.1  104.0  103.8  103.6  103.4
       103.2  102.9  102.6  102.3  101.9  101.4  100.9  100.3   99.7   99.0
        98.2   97.4   96.4   95.4   94.3   93.0   91.7   90.2   88.7   87.0
        85.1   83.2   81.0   78.8   76.4   73.8   71.1   68.2   65.2   62.3
        62.0   61.9   61.8   61.5   59.6   64.6   67.9   70.8   73.5   76.0
        78.3   80.5   82.5   84.4   86.1   87.7   89.1   90.4   91.5   92.6
        93.4   94.2   94.8   95.4   95.8   96.1   96.3   96.3   96.3   96.2
        96.0   95.7   95.2   94.7   94.1   93.5   92.7   91.8   90.9   89.8
        88.7   87.5   86.2   84.9   83.4   81.9   80.3   78.6   76.8   75.0
   6   104.8  104.8  104.8  104.8  104.8  104.8  104.7  104.7  104.7  104.6
       104.6  104.5  104.4  104.3  104.2  104.1  104.0  103.8  103.6  103.4
       103.2  102.9  102.6  102.2  101.8  101.4  100.9  100.3   99.7   99.0
        98.2   97.4   96.4   95.4   94.3   93.0   91.7   90.2   88.7   87.0
        85.1   83.1   81.0   78.8   76.4   73.8   71.1   68.3   65.4   63.0
        62.2   61.9   61.8   61.5   61.1   64.6   67.8   70.8   73.5   76.0
        78.3   80.5   82.5   84.4   86.1   87.7   89.1   90.4   91.5   92.5
        93.4   94.2   94.8   95.4   95.8   96.1   96.3   96.3   96.3   96.2
        96.0   95.6   95.2   94.7   94.1   93.4   92.7   91.8   90.9   89.8
        88.7   87.5   86.2   84.8   83.4   81.9   80.3   78.6   76.8   75.0
   7   104.8  104.8  104.8  104.8  104.8  104.8  104.7  104.7  104.7  104.6
       104.6  104.5  104.4  104.3  104.2  104.1  104.0  103.8  103.6  103.4
       103.2  102.9  102.6  102.2  101.8  101.4  100.9  100.3   99.7   99.0
        98.2   97.4   96.4   95.4   94.3   93.0   91.7   90.2   88.7   87.0
        85.1   83.1   81.0   78.8   76.4   73.8   71.1   68.3   65.6   63.3
        62.3   62.0   61.8   61.6   61.7   64.7   67.8   70.8   73.5   76.0
        78.3   80.5   82.5   84.4   86.1   87.7   89.1   90.4   91.5   92.5
        93.4   94.2   94.8   95.4   95.8   96.1   96.2   96.3   96.3   96.2
        96.0   95.6   95.2   94.7   94.1   93.4   92.7   91.8   90.8   89.8
        88.7   87.5   86.2   84.8   83.4   81.9   80.3   78.6   76.8   75.0

 HEAD WILL BE SAVED ON UNIT   51 AT END OF TIME STEP   30, STRESS PERIOD    5
1
  VOLUMETRIC BUDGET FOR ENTIRE MODEL AT END OF TIME STEP   30, STRESS PERIOD   5
  ------------------------------------------------------------------------------

     CUMULATIVE VOLUMES      L**3       RATES FOR THIS TIME STEP      L**3/T
     ------------------                 ------------------------

           IN:                                      IN:
           ---                                      ---
             STORAGE     =    32913618.0000               STORAGE     =           0.9492
       CONSTANT HEAD     =           0.0000         CONSTANT HEAD     =           0.0000
               WELLS     =           0.0000                 WELLS     =           0.0000
     HEAD DEP BOUNDS     =           0.0000       HEAD DEP BOUNDS     =           0.0000
      STREAM LEAKAGE     =     2125342.2500        STREAM LEAKAGE     =           0.4839

                TOTAL IN =    35038960.0000                  TOTAL IN =           1.4331

          OUT:                                     OUT:
          ----                                     ----
             STORAGE     =      586633.1250               STORAGE     =       5.2231E-02
       CONSTANT HEAD     =           0.0000         CONSTANT HEAD     =           0.0000
               WELLS     =    26334720.0000                 WELLS     =           1.0400
     HEAD DEP BOUNDS     =     8117602.5000       HEAD DEP BOUNDS     =           0.3409
      STREAM LEAKAGE     =           0.0000        STREAM LEAKAGE     =           0.0000

               TOTAL OUT =    35038956.0000                 TOTAL OUT =           1.4331

                IN - OUT =           4.0000                  IN - OUT =           0.0000

     PERCENT DISCREPANCY =           0.00         PERCENT DISCREPANCY =           0.00






         TIME SUMMARY AT END OF TIME STEP   30 IN STRESS PERIOD    5
                    SECONDS     MINUTES      HOURS       DAYS        YEARS
                    -----------------------------------------------------------
   TIME STEP LENGTH 2.49961E+05  4166.0      69.434      2.8931     7.92080E-03
 STRESS PERIOD TIME 2.59200E+06  43200.      720.00      30.000     8.21355E-02
         TOTAL TIME 1.29600E+07 2.16000E+05  3600.0      150.00     0.41068    
1
1
                            STRESS PERIOD NO.    6, LENGTH =   2592000.    
                            -----------------------------------------------

                              NUMBER OF TIME STEPS =    30

                               MULTIPLIER FOR DELT =     1.100

                            INITIAL TIME STEP SIZE =   15757.40    

 REUSING NON-PARAMETER WELLS FROM LAST STRESS PERIOD

      1 WELL 

 REUSING NON-PARAMETER GHB CELLS FROM LAST STRESS PERIOD

      7 GHB CELLS



 CLASSIFICATION & COUNT OF STREAM SEGMENTS BASED ON SOURCE OF INFLOW:

                HEADWATER     DIVERSION     RECEIVES TRIBUTARY FLOW
                ---------     ---------     -----------------------
                     1              0               0



                    INPUT DATA FOR EACH STREAM SEGMENT
 ---------------------------------------------------------------------------------------------

 SEGMENT    SEG.     INFLOW   OVERLAND   STREAM    STREAM   ICALC  OUTFLOW  DIVERSION PRIORITY
    NO.    LENGTH     RATE     RUNOFF      ET       PPT.    METH.  TO SEG.  FROM SEG.    NO.

      1  2.000E+04 3.561E+01 0.000E+00 0.000E+00 0.000E+00    2        0        0        0


         STREAMBED PROPERTIES AND STREAM DIMENSIONS

 SEGMENT     BED HYD. COND.      BED THICKNESS     ELEV.-TOP OF BED     WIDTH OF STREAM     DEPTH OF STREAM    STREAM ROUGHNESS
    No.     UPPER     LOWER     UPPER     LOWER     UPPER     LOWER     UPPER     LOWER     UPPER     LOWER   CHANNEL      BANK

     1  3.500E-07 3.500E-07                                                                                 3.000E-02 4.000E-02

  EIGHT POINT CROSS-SECTION DATA FOR SEGMENTS WITH ICALC = 2
    X VALUES X VALUES START FROM LEFT SIDE LOOKING DOWNSTREAM

     SEGMENT NO.        X1        X2        X3        X4        X5        X6        X7        X8
            1      0.000E+00 2.000E+00 4.000E+00 6.000E+00 8.000E+00 1.000E+01 1.200E+01 1.400E+01

    Z VALUES ARE RELATIVE TO STREAMBED ELEVATION

     SEGMENT NO.          Z1        Z2        Z3        Z4        Z5        Z6        Z7        Z8
            1      6.000E+00 4.500E+00 3.500E+00 0.000E+00 3.000E-01 3.500E+00 4.500E+00 6.000E+00



 
 SOLVING FOR HEAD 
                                                   Max.-Head-Change                         Max.-Flux-Residual
  Residual-Control   Outer-Iter.   Inner-Iter.     Column Row Layer    Maximum-Head-Change  Column Row Layer    Maximum-Flux-Residual          L2-NORM 
          0                 1           2            55    5     1      -0.8492223880E+00      55    5    1        -0.3402690313E+00      0.4833160156E+00
          0                 2           2            55    5     1       0.7970203475E-01      55    5    1         0.3343027962E-01      0.4782619210E-01
          0                 3           2            55    5     1      -0.6925345138E-02      55    5    1        -0.3013082499E-02      0.4363718843E-02
          0                 4           2            55    5     1       0.5415971981E-03      55    5    1         0.2413220307E-03      0.3525806284E-03
          0                 5           1            55    5     1      -0.3745832632E-04      55    5    1        -0.1696483502E-04      0.2490489846E-04
          0                 6           1            55    5     1       0.2242621640E-05      55    5    1         0.1028001417E-05      0.1512258957E-05
          0                 7           1            55    5     1      -0.1132122433E-06      55    5    1        -0.5241789225E-07      0.7716189215E-07

    ------------------------------------------------
       NWT REQUIRED            7 OUTER ITERATIONS 
       AND A TOTAL OF         11 INNER ITERATIONS.
    ------------------------------------------------

 NO OUTPUT CONTROL FOR STRESS PERIOD    6   TIME STEP    1
 
 SOLVING FOR HEAD 
                                                   Max.-Head-Change                         Max.-Flux-Residual
  Residual-Control   Outer-Iter.   Inner-Iter.     Column Row Layer    Maximum-Head-Change  Column Row Layer    Maximum-Flux-Residual          L2-NORM 
          0                 1           2            55    5     1      -0.5421987762E+00      55    5    1        -0.1772908571E+00      0.2691427333E+00
          0                 2           2            55    5     1       0.4929465427E-01      55    5    1         0.1741869323E-01      0.2607756657E-01
          0                 3           2            55    5     1      -0.4189585474E-02      55    5    1        -0.1570092903E-02      0.2388260709E-02
          0                 4           2            55    5     1       0.3231862668E-03      55    5    1         0.1257499754E-03      0.1945572851E-03
          0                 5           1            55    5     1      -0.2218481797E-04      55    5    1        -0.8840172039E-05      0.1382076932E-04
          0                 6           1            55    5     1       0.1323479523E-05      55    5    1         0.5356792050E-06      0.8416245211E-06
          0                 7           1            55    5     1      -0.6672287195E-07      55    5    1        -0.2731434456E-07      0.4299002094E-07

    ------------------------------------------------
       NWT REQUIRED            7 OUTER ITERATIONS 
       AND A TOTAL OF         11 INNER ITERATIONS.
    ------------------------------------------------

 NO OUTPUT CONTROL FOR STRESS PERIOD    6   TIME STEP    2
 
 SOLVING FOR HEAD 
                                                   Max.-Head-Change                         Max.-Flux-Residual
  Residual-Control   Outer-Iter.   Inner-Iter.     Column Row Layer    Maximum-Head-Change  Column Row Layer    Maximum-Flux-Residual          L2-NORM 
          0                 1           2            55    5     1      -0.3832970743E+00      55    5    1        -0.1031683869E+00      0.1850481569E+00
          0                 2           2            55    5     1       0.3417770742E-01      55    5    1         0.1017125721E-01      0.1766202183E-01
          0                 3           2            55    5     1      -0.2856130832E-02      55    5    1        -0.9165947229E-03      0.1620669074E-02
          0                 4           2            55    5     1       0.2177837043E-03      55    5    1         0.7341231075E-04      0.1329159228E-03
          0                 5           1            55    5     1      -0.1484371073E-04      55    5    1        -0.5160845891E-05      0.9488876377E-05
          0                 6           1            55    5     1       0.8822154127E-06      55    5    1         0.3127267529E-06      0.5793610541E-06

    ------------------------------------------------
       NWT REQUIRED            6 OUTER ITERATIONS 
       AND A TOTAL OF         10 INNER ITERATIONS.
    ------------------------------------------------

 NO OUTPUT CONTROL FOR STRESS PERIOD    6   TIME STEP    3
 
 SOLVING FOR HEAD 
                                                   Max.-Head-Change                         Max.-Flux-Residual
  Residual-Control   Outer-Iter.   Inner-Iter.     Column Row Layer    Maximum-Head-Change  Column Row Layer    Maximum-Flux-Residual          L2-NORM 
          0                 1           2            55    5     1      -0.2952515329E+00      55    5    1        -0.6643628274E-01      0.1472988058E+00
          0                 2           2            55    5     1       0.2601008382E-01      55    5    1         0.6570736915E-02      0.1405927938E-01
          0                 3           2            55    5     1      -0.2146570705E-02      55    5    1        -0.5919705976E-03      0.1294129733E-02
          0                 4           2            55    5     1       0.1621234052E-03      55    5    1         0.4741349415E-04      0.1066050626E-03
          0                 5           1            55    5     1      -0.1097860504E-04      55    5    1        -0.3333136114E-05      0.7635292013E-05
          0                 6           1            55    5     1       0.6500323452E-06      55    5    1         0.2019748271E-06      0.4670691625E-06

    ------------------------------------------------
       NWT REQUIRED            6 OUTER ITERATIONS 
       AND A TOTAL OF         10 INNER ITERATIONS.
    ------------------------------------------------

 NO OUTPUT CONTROL FOR STRESS PERIOD    6   TIME STEP    4
 
 SOLVING FOR HEAD 
                                                   Max.-Head-Change                         Max.-Flux-Residual
  Residual-Control   Outer-Iter.   Inner-Iter.     Column Row Layer    Maximum-Head-Change  Column Row Layer    Maximum-Flux-Residual          L2-NORM 
          0                 1           2            55    5     1      -0.2436319179E+00      55    5    1        -0.4654653428E-01      0.1276110687E+00
          0                 2           2            55    5     1       0.2128953512E-01      55    5    1         0.4614164909E-02      0.1225286584E-01
          0                 3           2            55    6     1      -0.1807285863E-02      55    5    1        -0.4156114910E-03      0.1131736220E-02
          0                 4           2            55    6     1       0.1411095726E-03      55    5    1         0.3328876782E-04      0.9352226435E-04
          0                 5           1            55    6     1      -0.9738051876E-05      55    5    1        -0.2340173524E-05      0.6714436697E-05
          0                 6           1            55    6     1       0.5819512118E-06      55    5    1         0.1418052555E-06      0.4113765269E-06

    ------------------------------------------------
       NWT REQUIRED            6 OUTER ITERATIONS 
       AND A TOTAL OF         10 INNER ITERATIONS.
    ------------------------------------------------

 NO OUTPUT CONTROL FOR STRESS PERIOD    6   TIME STEP    5
 
 SOLVING FOR HEAD 
                                                   Max.-Head-Change                         Max.-Flux-Residual
  Residual-Control   Outer-Iter.   Inner-Iter.     Column Row Layer    Maximum-Head-Change  Column Row Layer    Maximum-Flux-Residual          L2-NORM 
          0                 1           2            55    5     1      -0.2124363016E+00      55    5    1        -0.3494797518E-01      0.1159653992E+00
          0                 2           2            55    6     1       0.1934995462E-01      55    5    1         0.3469587716E-02      0.1119816924E-01
          0                 3           2            55    6     1      -0.1678092031E-02      55    5    1        -0.3124711631E-03      0.1037664099E-02
          0                 4           2            55    6     1       0.1307940320E-03      55    5    1         0.2502798873E-04      0.8600582903E-04
          0                 5           1            55    6     1      -0.9013844602E-05      55    5    1        -0.1759445238E-05      0.6190146102E-05
          0                 6           1            55    6     1       0.5381631540E-06      55    5    1         0.1066154347E-06      0.3799086154E-06

    ------------------------------------------------
       NWT REQUIRED            6 OUTER ITERATIONS 
       AND A TOTAL OF         10 INNER ITERATIONS.
    ------------------------------------------------

 NO OUTPUT CONTROL FOR STRESS PERIOD    6   TIME STEP    6
 
 SOLVING FOR HEAD 
                                                   Max.-Head-Change                         Max.-Flux-Residual
  Residual-Control   Outer-Iter.   Inner-Iter.     Column Row Layer    Maximum-Head-Change  Column Row Layer    Maximum-Flux-Residual          L2-NORM 
          0                 1           2            55    5     1      -0.1934456521E+00      55    5    1        -0.2772528102E-01      0.1083894806E+00
          0                 2           2            55    6     1       0.1821479052E-01      55    5    1         0.2754987267E-02      0.1051198864E-01
          0                 3           2            55    7     1      -0.1598513152E-02      55    5    1        -0.2480929976E-03      0.9772953152E-03
          0                 4           2            55    7     1       0.1257855409E-03      55    5    1         0.1987165671E-04      0.8127031451E-04
          0                 5           1            55    7     1      -0.8716836598E-05      55    5    1        -0.1396958575E-05      0.5865774547E-05
          0                 6           1            55    7     1       0.5219208256E-06      55    5    1         0.8465017309E-07      0.3607197884E-06

    ------------------------------------------------
       NWT REQUIRED            6 OUTER ITERATIONS 
       AND A TOTAL OF         10 INNER ITERATIONS.
    ------------------------------------------------

 NO OUTPUT CONTROL FOR STRESS PERIOD    6   TIME STEP    7
 
 SOLVING FOR HEAD 
                                                   Max.-Head-Change                         Max.-Flux-Residual
  Residual-Control   Outer-Iter.   Inner-Iter.     Column Row Layer    Maximum-Head-Change  Column Row Layer    Maximum-Flux-Residual          L2-NORM 
          0                 1           2            55    6     1      -0.1842291948E+00      55    5    1        -0.2296689889E-01      0.1031527739E+00
          0                 2           2            55    7     1       0.1773446084E-01      55    5    1         0.2283198904E-02      0.1003051241E-01
          0                 3           2            55    7     1      -0.1558194278E-02      55    5    1        -0.2055991549E-03      0.9353007412E-03
          0                 4           2            55    7     1       0.1224286127E-03      55    5    1         0.1646806668E-04      0.7806618447E-04
          0                 5           1            55    7     1      -0.8474779889E-05      55    5    1        -0.1157688915E-05      0.5653864363E-05
          0                 6           1            55    7     1       0.5070419410E-06      55    5    1         0.7015138515E-07      0.3485818317E-06

    ------------------------------------------------
       NWT REQUIRED            6 OUTER ITERATIONS 
       AND A TOTAL OF         10 INNER ITERATIONS.
    ------------------------------------------------

 NO OUTPUT CONTROL FOR STRESS PERIOD    6   TIME STEP    8
 
 SOLVING FOR HEAD 
                                                   Max.-Head-Change                         Max.-Flux-Residual
  Residual-Control   Outer-Iter.   Inner-Iter.     Column Row Layer    Maximum-Head-Change  Column Row Layer    Maximum-Flux-Residual          L2-NORM 
          0                 1           2            55    7     1      -0.1796147196E+00      55    6    1        -0.1972422608E-01      0.9939604241E-01
          0                 2           2            55    7     1       0.1734201926E-01      55    6    1         0.1967185875E-02      0.9679467678E-02
          0                 3           2            55    7     1      -0.1520077650E-02      55    6    1        -0.1771227096E-03      0.9051367878E-03
          0                 4           2            55    7     1       0.1192034771E-03      55    6    1         0.1418680564E-04      0.7585280175E-04
          0                 5           1            55    7     1      -0.8239589664E-05      55    6    1        -0.9973237214E-06      0.5514999187E-05
          0                 6           1            55    7     1       0.4924708167E-06      55    4    1        -0.6201204528E-07      0.3410486382E-06

    ------------------------------------------------
       NWT REQUIRED            6 OUTER ITERATIONS 
       AND A TOTAL OF         10 INNER ITERATIONS.
    ------------------------------------------------

 NO OUTPUT CONTROL FOR STRESS PERIOD    6   TIME STEP    9
 
 SOLVING FOR HEAD 
                                                   Max.-Head-Change                         Max.-Flux-Residual
  Residual-Control   Outer-Iter.   Inner-Iter.     Column Row Layer    Maximum-Head-Change  Column Row Layer    Maximum-Flux-Residual          L2-NORM 
          0                 1           2            55    7     1      -0.1773956551E+00      55    7    1        -0.1744535639E-01      0.9666717676E-01
          0                 2           2            55    7     1       0.1707235915E-01      55    7    1         0.1740301592E-02      0.9422801632E-02
          0                 3           2            55    7     1      -0.1492150201E-02      55    7    1        -0.1566806779E-03      0.8835325933E-03
          0                 4           2            55    7     1       0.1167383240E-03      55    7    1         0.1254963329E-04      0.7435208279E-04
          0                 5           1            55    7     1      -0.8054616158E-05      55    7    1        -0.8822304203E-06      0.5428756211E-05
          0                 6           1            55    7     1       0.4807866511E-06      55    4    1        -0.5958921179E-07      0.3368587207E-06

    ------------------------------------------------
       NWT REQUIRED            6 OUTER ITERATIONS 
       AND A TOTAL OF         10 INNER ITERATIONS.
    ------------------------------------------------

 NO OUTPUT CONTROL FOR STRESS PERIOD    6   TIME STEP   10
 
 SOLVING FOR HEAD 
                                                   Max.-Head-Change                         Max.-Flux-Residual
  Residual-Control   Outer-Iter.   Inner-Iter.     Column Row Layer    Maximum-Head-Change  Column Row Layer    Maximum-Flux-Residual          L2-NORM 
          0                 1           2            55    7     1      -0.1769928364E+00      55    7    1        -0.1566804827E-01      0.9464407087E-01
          0                 2           2            55    7     1       0.1697275494E-01      55    7    1         0.1563206770E-02      0.9231010230E-02
          0                 3           2            55    7     1      -0.1478579837E-02      55    7    1        -0.1407362547E-03      0.8677475881E-03
          0                 4           2            55    7     1       0.1153582569E-03      55    7    1         0.1127252884E-04      0.7333248364E-04
          0                 5           1            55    7     1      -0.7942080697E-05      55    4    1         0.8474162154E-06      0.5378179410E-05
          0                 6           1            55    7     1       0.4732974849E-06      55    4    1        -0.5796619540E-07      0.3349616258E-06

    ------------------------------------------------
       NWT REQUIRED            6 OUTER ITERATIONS 
       AND A TOTAL OF         10 INNER ITERATIONS.
    ------------------------------------------------

 NO OUTPUT CONTROL FOR STRESS PERIOD    6   TIME STEP   11
 
 SOLVING FOR HEAD 
                                                   Max.-Head-Change                         Max.-Flux-Residual
  Residual-Control   Outer-Iter.   Inner-Iter.     Column Row Layer    Maximum-Head-Change  Column Row Layer    Maximum-Flux-Residual          L2-NORM 
          0                 1           2            55    5     1      -0.1787847535E+00      55    7    1        -0.1421588841E-01      0.9300905595E-01
          0                 2           2            55    7     1       0.1706557915E-01      55    7    1         0.1418607317E-02      0.9096069715E-02
          0                 3           2            55    7     1      -0.1481296756E-02      55    7    1        -0.1277168998E-03      0.8576828332E-03
          0                 4           2            55    7     1       0.1152099867E-03      55    7    1         0.1022971708E-04      0.7276519286E-04
          0                 5           1            55    7     1      -0.7911723792E-05      55    4    1         0.8271788126E-06      0.5358150279E-05
          0                 6           1            55    7     1       0.4705586487E-06      55    4    1        -0.5692134408E-07      0.3348693456E-06

    ------------------------------------------------
       NWT REQUIRED            6 OUTER ITERATIONS 
       AND A TOTAL OF         10 INNER ITERATIONS.
    ------------------------------------------------

 NO OUTPUT CONTROL FOR STRESS PERIOD    6   TIME STEP   12
 
 SOLVING FOR HEAD 
                                                   Max.-Head-Change                         Max.-Flux-Residual
  Residual-Control   Outer-Iter.   Inner-Iter.     Column Row Layer    Maximum-Head-Change  Column Row Layer    Maximum-Flux-Residual          L2-NORM 
          0                 1           2            55    5     1      -0.1846328476E+00      55    5    1        -0.1317571754E-01      0.9160881812E-01
          0                 2           2            55    7     1       0.1736084222E-01      55    5    1         0.1308216737E-02      0.8964824262E-02
          0                 3           2            55    7     1      -0.1501107492E-02      55    5    1        -0.1178248941E-03      0.8472057731E-03
          0                 4           2            55    7     1       0.1163498266E-03      55    5    1         0.9437378118E-05      0.7215967648E-04
          0                 5           1            55    7     1      -0.7966909690E-05      55    4    1         0.8135095708E-06      0.5337162374E-05
          0                 6           1            55    7     1       0.4727364789E-06      55    4    1        -0.5631930300E-07      0.3348709541E-06

    ------------------------------------------------
       NWT REQUIRED            6 OUTER ITERATIONS 
       AND A TOTAL OF         10 INNER ITERATIONS.
    ------------------------------------------------

 NO OUTPUT CONTROL FOR STRESS PERIOD    6   TIME STEP   13
 
 SOLVING FOR HEAD 
                                                   Max.-Head-Change                         Max.-Flux-Residual
  Residual-Control   Outer-Iter.   Inner-Iter.     Column Row Layer    Maximum-Head-Change  Column Row Layer    Maximum-Flux-Residual          L2-NORM 
          0                 1           2            55    5     1      -0.1928165762E+00      55    5    1        -0.1239530550E-01      0.9040130897E-01
          0                 2           2            55    7     1       0.1786533366E-01      55    5    1         0.1229735359E-02      0.8864338253E-02
          0                 3           2            55    7     1      -0.1538502935E-02      55    5    1        -0.1107666027E-03      0.8402486220E-03
          0                 4           2            55    7     1       0.1188072031E-03      55    4    1        -0.8943546656E-05      0.7183558844E-04
          0                 5           1            55    7     1      -0.8109016520E-05      55    4    1         0.8054476259E-06      0.5333951395E-05
          0                 6           1            55    7     1       0.4798722644E-06      55    4    1        -0.5609596343E-07      0.3358217650E-06

    ------------------------------------------------
       NWT REQUIRED            6 OUTER ITERATIONS 
       AND A TOTAL OF         10 INNER ITERATIONS.
    ------------------------------------------------

 NO OUTPUT CONTROL FOR STRESS PERIOD    6   TIME STEP   14
 
 SOLVING FOR HEAD 
                                                   Max.-Head-Change                         Max.-Flux-Residual
  Residual-Control   Outer-Iter.   Inner-Iter.     Column Row Layer    Maximum-Head-Change  Column Row Layer    Maximum-Flux-Residual          L2-NORM 
          0                 1           2            55    5     1      -0.2030196285E+00      55    5    1        -0.1175983158E-01      0.8923689856E-01
          0                 2           2            55    7     1       0.1857656075E-01      55    5    1         0.1165540516E-02      0.8787076289E-02
          0                 3           2            55    7     1      -0.1593169459E-02      55    5    1        -0.1049955961E-03      0.8350738118E-03
          0                 4           2            55    7     1       0.1225489334E-03      55    4    1        -0.8836375645E-05      0.7159682027E-04
          0                 5           1            55    7     1      -0.8335106490E-05      55    4    1         0.8009235737E-06      0.5333841732E-05
          0                 6           1            55    7     1       0.4917456774E-06      55    4    1        -0.5611115217E-07      0.3368714564E-06

    ------------------------------------------------
       NWT REQUIRED            6 OUTER ITERATIONS 
       AND A TOTAL OF         10 INNER ITERATIONS.
    ------------------------------------------------

 NO OUTPUT CONTROL FOR STRESS PERIOD    6   TIME STEP   15
 
 SOLVING FOR HEAD 
                                                   Max.-Head-Change                         Max.-Flux-Residual
  Residual-Control   Outer-Iter.   Inner-Iter.     Column Row Layer    Maximum-Head-Change  Column Row Layer    Maximum-Flux-Residual          L2-NORM 
          0                 1           2            55    5     1      -0.2153143880E+00      55    5    1        -0.1125678853E-01      0.8793590494E-01
          0                 2           2            55    7     1       0.1949151143E-01      55    5    1         0.1114294334E-02      0.8640577351E-02
          0                 3           2            55    7     1      -0.1664721877E-02      55    5    1        -0.1003921437E-03      0.8224798096E-03
          0                 4           2            55    7     1       0.1275345217E-03      55    4    1        -0.8763301915E-05      0.7079305175E-04
          0                 5           1            55    7     1      -0.8641624052E-05      55    4    1         0.7993472488E-06      0.5298207644E-05
          0                 6           1            55    7     1       0.5080864156E-06      55    4    1        -0.5632106337E-07      0.3359977287E-06

    ------------------------------------------------
       NWT REQUIRED            6 OUTER ITERATIONS 
       AND A TOTAL OF         10 INNER ITERATIONS.
    ------------------------------------------------

 NO OUTPUT CONTROL FOR STRESS PERIOD    6   TIME STEP   16
 
 SOLVING FOR HEAD 
                                                   Max.-Head-Change                         Max.-Flux-Residual
  Residual-Control   Outer-Iter.   Inner-Iter.     Column Row Layer    Maximum-Head-Change  Column Row Layer    Maximum-Flux-Residual          L2-NORM 
          0                 1           2            55    5     1      -0.2296561840E+00      55    5    1        -0.1084820564E-01      0.8680143036E-01
          0                 2           2            54    7     1       0.2088893594E-01      55    5    1         0.1072190090E-02      0.8524300524E-02
          0                 3           2            54    7     1      -0.1775921920E-02      55    5    1        -0.9661369482E-04      0.8130469465E-03
          0                 4           2            54    7     1       0.1354561426E-03      54    4    1        -0.8754574484E-05      0.7025430295E-04
          0                 5           1            54    7     1      -0.9141148446E-05      54    4    1         0.8012931971E-06      0.5281827938E-05
          0                 6           1            54    7     1       0.5354266105E-06      54    4    1        -0.5681799742E-07      0.3363112543E-06

    ------------------------------------------------
       NWT REQUIRED            6 OUTER ITERATIONS 
       AND A TOTAL OF         10 INNER ITERATIONS.
    ------------------------------------------------

 NO OUTPUT CONTROL FOR STRESS PERIOD    6   TIME STEP   17
 
 SOLVING FOR HEAD 
                                                   Max.-Head-Change                         Max.-Flux-Residual
  Residual-Control   Outer-Iter.   Inner-Iter.     Column Row Layer    Maximum-Head-Change  Column Row Layer    Maximum-Flux-Residual          L2-NORM 
          0                 1           2            55    5     1      -0.2460723341E+00      55    5    1        -0.1051660150E-01      0.8625835584E-01
          0                 2           2            54    7     1       0.2246242423E-01      55    5    1         0.1037417270E-02      0.8455829988E-02
          0                 3           2            54    7     1      -0.1902496590E-02      55    5    1        -0.9349777140E-04      0.8077479321E-03
          0                 4           2            54    7     1       0.1445311799E-03      54    4    1        -0.8795175358E-05      0.7003174109E-04
          0                 5           1            54    7     1      -0.9714684208E-05      54    4    1         0.8105509028E-06      0.5285548650E-05
          0                 6           1            54    7     1       0.5667258393E-06      54    4    1        -0.5785473967E-07      0.3376530137E-06

    ------------------------------------------------
       NWT REQUIRED            6 OUTER ITERATIONS 
       AND A TOTAL OF         10 INNER ITERATIONS.
    ------------------------------------------------

 NO OUTPUT CONTROL FOR STRESS PERIOD    6   TIME STEP   18
 
 SOLVING FOR HEAD 
                                                   Max.-Head-Change                         Max.-Flux-Residual
  Residual-Control   Outer-Iter.   Inner-Iter.     Column Row Layer    Maximum-Head-Change  Column Row Layer    Maximum-Flux-Residual          L2-NORM 
          0                 1           2            55    5     1      -0.2646056283E+00      55    5    1        -0.1025341810E-01      0.8500975322E-01
          0                 2           2            54    7     1       0.2417493417E-01      55    5    1         0.1009025868E-02      0.8348988934E-02
          0                 3           2            54    7     1      -0.2039922535E-02      55    5    1        -0.9095957356E-04      0.8004966507E-03
          0                 4           2            54    7     1       0.1543460372E-03      53    4    1        -0.8869401455E-05      0.6971158330E-04
          0                 5           1            54    7     1      -0.1033148345E-04      53    4    1         0.8220990804E-06      0.5284751218E-05
          0                 6           1            54    7     1       0.6000789265E-06      52    4    1        -0.5886948884E-07      0.3387544531E-06

    ------------------------------------------------
       NWT REQUIRED            6 OUTER ITERATIONS 
       AND A TOTAL OF         10 INNER ITERATIONS.
    ------------------------------------------------

 NO OUTPUT CONTROL FOR STRESS PERIOD    6   TIME STEP   19
 
 SOLVING FOR HEAD 
                                                   Max.-Head-Change                         Max.-Flux-Residual
  Residual-Control   Outer-Iter.   Inner-Iter.     Column Row Layer    Maximum-Head-Change  Column Row Layer    Maximum-Flux-Residual          L2-NORM 
          0                 1           2            55    5     1      -0.2849198405E+00      55    5    1        -0.1001783809E-01      0.8378484959E-01
          0                 2           2            53    7     1       0.2611771266E-01      55    5    1         0.9829837351E-03      0.8251748765E-02
          0                 3           2            53    7     1      -0.2194454861E-02      55    5    1        -0.8863568619E-04      0.7943742815E-03
          0                 4           2            53    7     1       0.1652780842E-03      53    4    1        -0.8907160671E-05      0.6947513593E-04
          0                 5           1            53    7     1      -0.1101152427E-04      53    4    1         0.8311202873E-06      0.5288406271E-05
          0                 6           1            53    7     1       0.6368234102E-06      52    4    1        -0.5989435437E-07      0.3399708251E-06

    ------------------------------------------------
       NWT REQUIRED            6 OUTER ITERATIONS 
       AND A TOTAL OF         10 INNER ITERATIONS.
    ------------------------------------------------

 NO OUTPUT CONTROL FOR STRESS PERIOD    6   TIME STEP   20
 
 SOLVING FOR HEAD 
                                                   Max.-Head-Change                         Max.-Flux-Residual
  Residual-Control   Outer-Iter.   Inner-Iter.     Column Row Layer    Maximum-Head-Change  Column Row Layer    Maximum-Flux-Residual          L2-NORM 
          0                 1           2            55    5     1      -0.3055174115E+00      55    5    1        -0.9804685673E-02      0.8258407787E-01
          0                 2           2            53    7     1       0.2802788021E-01      53    7    1         0.9617860823E-03      0.8147369668E-02
          0                 3           2            53    7     1      -0.2341478953E-02      53    7    1        -0.8660418759E-04      0.7895460172E-03
          0                 4           2            53    7     1       0.1754567429E-03      53    4    1        -0.9541183724E-05      0.6949318934E-04
          0                 5           1            53    7     1      -0.1163980518E-04      53    4    1         0.8785056096E-06      0.5314694661E-05
          0                 6           1            53    7     1       0.6706872082E-06      52    4    1        -0.6282857257E-07      0.3424038819E-06

    ------------------------------------------------
       NWT REQUIRED            6 OUTER ITERATIONS 
       AND A TOTAL OF         10 INNER ITERATIONS.
    ------------------------------------------------

 NO OUTPUT CONTROL FOR STRESS PERIOD    6   TIME STEP   21
 
 SOLVING FOR HEAD 
                                                   Max.-Head-Change                         Max.-Flux-Residual
  Residual-Control   Outer-Iter.   Inner-Iter.     Column Row Layer    Maximum-Head-Change  Column Row Layer    Maximum-Flux-Residual          L2-NORM 
          0                 1           3            53    7     1      -0.3265278613E+00      55    5    1        -0.9565218077E-02      0.8130880461E-01
          0                 2           2            53    7     1       0.2998849139E-01      53    7    1         0.9444367208E-03      0.8037426217E-02
          0                 3           2            53    7     1      -0.2497737401E-02      53    7    1        -0.8504950711E-04      0.7825421976E-03
          0                 4           2            53    7     1       0.1864933761E-03      53    4    1        -0.9555733747E-05      0.6920165843E-04
          0                 5           1            53    7     1      -0.1232253599E-04      53    4    1         0.8811996146E-06      0.5313840768E-05
          0                 6           1            53    7     1       0.7067997425E-06      52    4    1        -0.6327747037E-07      0.3430753577E-06

    ------------------------------------------------
       NWT REQUIRED            6 OUTER ITERATIONS 
       AND A TOTAL OF         11 INNER ITERATIONS.
    ------------------------------------------------

 NO OUTPUT CONTROL FOR STRESS PERIOD    6   TIME STEP   22
 
 SOLVING FOR HEAD 
                                                   Max.-Head-Change                         Max.-Flux-Residual
  Residual-Control   Outer-Iter.   Inner-Iter.     Column Row Layer    Maximum-Head-Change  Column Row Layer    Maximum-Flux-Residual          L2-NORM 
          0                 1           3            55    5     1      -0.3528486034E+00      55    5    1        -0.9262066688E-02      0.8028630846E-01
          0                 2           2            53    7     1       0.3212919548E-01      53    7    1         0.9212640271E-03      0.7917755503E-02
          0                 3           2            53    7     1      -0.2664126793E-02      53    7    1        -0.8296706051E-04      0.7733493562E-03
          0                 4           2            53    7     1       0.1979145851E-03      53    4    1        -0.9263874876E-05      0.6871850510E-04
          0                 5           1            53    7     1      -0.1300624165E-04      53    4    1         0.8658952346E-06      0.5300403782E-05
          0                 6           1            53    7     1       0.7416829907E-06      52    4    1        -0.6271688235E-07      0.3429458045E-06

    ------------------------------------------------
       NWT REQUIRED            6 OUTER ITERATIONS 
       AND A TOTAL OF         11 INNER ITERATIONS.
    ------------------------------------------------

 NO OUTPUT CONTROL FOR STRESS PERIOD    6   TIME STEP   23
 
 SOLVING FOR HEAD 
                                                   Max.-Head-Change                         Max.-Flux-Residual
  Residual-Control   Outer-Iter.   Inner-Iter.     Column Row Layer    Maximum-Head-Change  Column Row Layer    Maximum-Flux-Residual          L2-NORM 
          0                 1           3            55    5     1      -0.3816405292E+00      55    5    1        -0.9127386780E-02      0.7940491635E-01
          0                 2           2            53    7     1       0.3448017135E-01      53    7    1         0.9009981423E-03      0.7839664661E-02
          0                 3           2            53    7     1      -0.2848560132E-02      59    4    1         0.8257150507E-04      0.7683423457E-03
          0                 4           2            53    7     1       0.2106902389E-03      53    4    1        -0.9178687396E-05      0.6854547033E-04
          0                 5           1            53    7     1      -0.1377768339E-04      53    4    1         0.8629112784E-06      0.5307184754E-05
          0                 6           1            53    7     1       0.7813272329E-06      52    4    1        -0.6283626952E-07      0.3438766030E-06

    ------------------------------------------------
       NWT REQUIRED            6 OUTER ITERATIONS 
       AND A TOTAL OF         11 INNER ITERATIONS.
    ------------------------------------------------

 NO OUTPUT CONTROL FOR STRESS PERIOD    6   TIME STEP   24
 
 SOLVING FOR HEAD 
                                                   Max.-Head-Change                         Max.-Flux-Residual
  Residual-Control   Outer-Iter.   Inner-Iter.     Column Row Layer    Maximum-Head-Change  Column Row Layer    Maximum-Flux-Residual          L2-NORM 
          0                 1           3            55    5     1      -0.4117545694E+00      55    5    1        -0.8970019237E-02      0.7844231108E-01
          0                 2           2            53    7     1       0.3698173765E-01      53    7    1         0.8818075263E-03      0.7763478151E-02
          0                 3           2            53    7     1      -0.3044538817E-02      58    4    1         0.9223069847E-04      0.7660260725E-03
          0                 4           2            53    7     1       0.2242463898E-03      58    4    1        -0.1003018836E-04      0.6872345450E-04
          0                 5           1            53    7     1      -0.1459489301E-04      53    4    1         0.8582572715E-06      0.5340891017E-05
          0                 6           1            53    7     1       0.8234776091E-06      52    4    1        -0.6281696940E-07      0.3462617656E-06

    ------------------------------------------------
       NWT REQUIRED            6 OUTER ITERATIONS 
       AND A TOTAL OF         11 INNER ITERATIONS.
    ------------------------------------------------

 NO OUTPUT CONTROL FOR STRESS PERIOD    6   TIME STEP   25
 
 SOLVING FOR HEAD 
                                                   Max.-Head-Change                         Max.-Flux-Residual
  Residual-Control   Outer-Iter.   Inner-Iter.     Column Row Layer    Maximum-Head-Change  Column Row Layer    Maximum-Flux-Residual          L2-NORM 
          0                 1           3            55    5     1      -0.4429765437E+00      55    5    1        -0.8804063440E-02      0.7743647003E-01
          0                 2           2            53    7     1       0.3959731429E-01      53    7    1         0.8624192217E-03      0.7687227751E-02
          0                 3           2            53    7     1      -0.3248184365E-02      57    4    1         0.9939044862E-04      0.7650082780E-03
          0                 4           2            53    7     1       0.2382643396E-03      57    4    1        -0.1115054996E-04      0.6908053167E-04
          0                 5           1            53    7     1      -0.1543736590E-04      57    4    1         0.9485282355E-06      0.5388918142E-05
          0                 6           1            53    7     1       0.8675348637E-06      57    4    1        -0.6267399577E-07      0.3491603866E-06

    ------------------------------------------------
       NWT REQUIRED            6 OUTER ITERATIONS 
       AND A TOTAL OF         11 INNER ITERATIONS.
    ------------------------------------------------

 NO OUTPUT CONTROL FOR STRESS PERIOD    6   TIME STEP   26
 
 SOLVING FOR HEAD 
                                                   Max.-Head-Change                         Max.-Flux-Residual
  Residual-Control   Outer-Iter.   Inner-Iter.     Column Row Layer    Maximum-Head-Change  Column Row Layer    Maximum-Flux-Residual          L2-NORM 
          0                 1           3            55    5     1      -0.4750298649E+00      55    5    1        -0.8612636760E-02      0.7641833505E-01
          0                 2           2            53    7     1       0.4226136960E-01      53    7    1         0.8422613467E-03      0.7613624966E-02
          0                 3           2            53    7     1      -0.3451690459E-02      56    4    1         0.1053747556E-03      0.7656357291E-03
          0                 4           2            53    7     1       0.2520810042E-03      56    4    1        -0.1218924281E-04      0.6965143668E-04
          0                 5           1            53    7     1      -0.1626067073E-04      56    4    1         0.1052928406E-05      0.5454091088E-05
          0                 6           1            53    7     1       0.9097976891E-06      56    4    1        -0.7205232677E-07      0.3532585826E-06

    ------------------------------------------------
       NWT REQUIRED            6 OUTER ITERATIONS 
       AND A TOTAL OF         11 INNER ITERATIONS.
    ------------------------------------------------

 NO OUTPUT CONTROL FOR STRESS PERIOD    6   TIME STEP   27
 
 SOLVING FOR HEAD 
                                                   Max.-Head-Change                         Max.-Flux-Residual
  Residual-Control   Outer-Iter.   Inner-Iter.     Column Row Layer    Maximum-Head-Change  Column Row Layer    Maximum-Flux-Residual          L2-NORM 
          0                 1           3            55    5     1      -0.5065559859E+00      55    5    1        -0.8404263342E-02      0.7530848754E-01
          0                 2           3            52    1     1       0.4322283910E-01      53    7    1         0.8205678015E-03      0.7583004393E-02
          0                 3           2            51    1     1      -0.3460423805E-02      53    4    1         0.1187733327E-03      0.7816430202E-03
          0                 4           2            51    1     1       0.2494069847E-03      52    4    1        -0.1385485768E-04      0.7208880991E-04
          0                 5           1            51    1     1      -0.1597680872E-04      52    4    1         0.1204076203E-05      0.5667071139E-05
          0                 6           1            51    1     1       0.8911174667E-06      52    4    1        -0.8280407560E-07      0.3661142371E-06

    ------------------------------------------------
       NWT REQUIRED            6 OUTER ITERATIONS 
       AND A TOTAL OF         12 INNER ITERATIONS.
    ------------------------------------------------

 NO OUTPUT CONTROL FOR STRESS PERIOD    6   TIME STEP   28
 
 SOLVING FOR HEAD 
                                                   Max.-Head-Change                         Max.-Flux-Residual
  Residual-Control   Outer-Iter.   Inner-Iter.     Column Row Layer    Maximum-Head-Change  Column Row Layer    Maximum-Flux-Residual          L2-NORM 
          0                 1           3            55    5     1      -0.5265207779E+00      55    5    1        -0.8163066014E-02      0.7381142735E-01
          0                 2           3            53    7     1       0.4403896751E-01      53    7    1         0.7937382726E-03      0.7553951330E-02
          0                 3           2            53    7     1      -0.3442970422E-02      54    4    1         0.1235283352E-03      0.7920301275E-03
          0                 4           2            53    7     1       0.2437986107E-03      54    4    1        -0.1367308646E-04      0.7352667924E-04
          0                 5           1            53    7     1      -0.1548912015E-04      52    4    1         0.1158050811E-05      0.5786002295E-05
          0                 6           1            53    7     1       0.8800062480E-06      52    4    1        -0.7853830297E-07      0.3727407061E-06

    ------------------------------------------------
       NWT REQUIRED            6 OUTER ITERATIONS 
       AND A TOTAL OF         12 INNER ITERATIONS.
    ------------------------------------------------

 NO OUTPUT CONTROL FOR STRESS PERIOD    6   TIME STEP   29
 
 SOLVING FOR HEAD 
                                                   Max.-Head-Change                         Max.-Flux-Residual
  Residual-Control   Outer-Iter.   Inner-Iter.     Column Row Layer    Maximum-Head-Change  Column Row Layer    Maximum-Flux-Residual          L2-NORM 
          0                 1           3            55    5     1      -0.5688348491E+00      55    5    1        -0.7735606841E-02      0.7242280008E-01
          0                 2           3            53    7     1       0.4646683760E-01      53    7    1         0.7491973483E-03      0.7328882992E-02
          0                 3           2            53    7     1      -0.3597731928E-02      50    4    1         0.1133072241E-03      0.7693790668E-03
          0                 4           2            53    7     1       0.2518932760E-03      50    4    1        -0.1276991662E-04      0.7185301380E-04
          0                 5           1            53    7     1      -0.1581423358E-04      55    4    1         0.1096207712E-05      0.5688990062E-05
          0                 6           1            54    7     1       0.8959503152E-06      52    4    1        -0.7421353221E-07      0.3672549724E-06

    ------------------------------------------------
       NWT REQUIRED            6 OUTER ITERATIONS 
       AND A TOTAL OF         12 INNER ITERATIONS.
    ------------------------------------------------

 NO OUTPUT CONTROL FOR STRESS PERIOD    6   TIME STEP   30



 STREAM LISTING     PERIOD      6   STEP       30

 LAYER ROW COL. STREAM  RCH.   FLOW INTO    STREAM     FLOW OUT OF   OVRLND.    DIRECT     STREAM      STREAM      STREAM     STREAM  STREAMBED   FLOW TO   CHNG. UNSAT. 
                SEG.NO.  NO.   STRM. RCH.    LOSS       STRM. RCH.   RUNOFF     PRECIP       ET         HEAD        DEPTH      WIDTH  CONDCTNC.   WAT. TAB.

   1    4    1     1     1    3.5610E+01  8.9051E-03   3.5601E+01  0.000E+00  0.000E+00  0.000E+00  1.44129E+02  4.279E+00  9.115E+00  1.863E-03  8.449E-03  4.563E-04
   1    4    2     1     2    3.5601E+01  8.9031E-03   3.5592E+01  0.000E+00  0.000E+00  0.000E+00  1.43828E+02  4.278E+00  9.114E+00  1.863E-03  8.448E-03  4.556E-04
   1    4    3     1     3    3.5592E+01  8.9011E-03   3.5583E+01  0.000E+00  0.000E+00  0.000E+00  1.43528E+02  4.278E+00  9.112E+00  1.863E-03  8.446E-03  4.554E-04
   1    4    4     1     4    3.5583E+01  8.8991E-03   3.5574E+01  0.000E+00  0.000E+00  0.000E+00  1.43228E+02  4.278E+00  9.110E+00  1.863E-03  8.443E-03  4.559E-04
   1    4    5     1     5    3.5574E+01  8.8970E-03   3.5565E+01  0.000E+00  0.000E+00  0.000E+00  1.42927E+02  4.277E+00  9.109E+00  1.862E-03  8.440E-03  4.570E-04
   1    4    6     1     6    3.5565E+01  8.8950E-03   3.5557E+01  0.000E+00  0.000E+00  0.000E+00  1.42627E+02  4.277E+00  9.107E+00  1.862E-03  8.436E-03  4.586E-04
   1    4    7     1     7    3.5557E+01  8.8930E-03   3.5548E+01  0.000E+00  0.000E+00  0.000E+00  1.42326E+02  4.276E+00  9.105E+00  1.862E-03  8.432E-03  4.609E-04
   1    4    8     1     8    3.5548E+01  8.8910E-03   3.5539E+01  0.000E+00  0.000E+00  0.000E+00  1.42026E+02  4.276E+00  9.104E+00  1.862E-03  8.427E-03  4.638E-04
   1    4    9     1     9    3.5539E+01  8.8890E-03   3.5530E+01  0.000E+00  0.000E+00  0.000E+00  1.41726E+02  4.276E+00  9.102E+00  1.861E-03  8.422E-03  4.673E-04
   1    4   10     1    10    3.5530E+01  8.8869E-03   3.5521E+01  0.000E+00  0.000E+00  0.000E+00  1.41425E+02  4.275E+00  9.100E+00  1.861E-03  8.415E-03  4.714E-04
   1    4   11     1    11    3.5521E+01  8.8849E-03   3.5512E+01  0.000E+00  0.000E+00  0.000E+00  1.41125E+02  4.275E+00  9.099E+00  1.861E-03  8.409E-03  4.762E-04
   1    4   12     1    12    3.5512E+01  8.8829E-03   3.5503E+01  0.000E+00  0.000E+00  0.000E+00  1.40824E+02  4.274E+00  9.097E+00  1.861E-03  8.401E-03  4.816E-04
   1    4   13     1    13    3.5503E+01  8.8809E-03   3.5494E+01  0.000E+00  0.000E+00  0.000E+00  1.40524E+02  4.274E+00  9.095E+00  1.860E-03  8.393E-03  4.876E-04
   1    4   14     1    14    3.5494E+01  8.8789E-03   3.5486E+01  0.000E+00  0.000E+00  0.000E+00  1.40223E+02  4.273E+00  9.094E+00  1.860E-03  8.385E-03  4.942E-04
   1    4   15     1    15    3.5486E+01  8.8768E-03   3.5477E+01  0.000E+00  0.000E+00  0.000E+00  1.39923E+02  4.273E+00  9.092E+00  1.860E-03  8.375E-03  5.015E-04
   1    4   16     1    16    3.5477E+01  8.8748E-03   3.5468E+01  0.000E+00  0.000E+00  0.000E+00  1.39623E+02  4.273E+00  9.090E+00  1.860E-03  8.365E-03  5.094E-04
   1    4   17     1    17    3.5468E+01  8.8728E-03   3.5459E+01  0.000E+00  0.000E+00  0.000E+00  1.39322E+02  4.272E+00  9.089E+00  1.859E-03  8.355E-03  5.178E-04
   1    4   18     1    18    3.5459E+01  8.8708E-03   3.5450E+01  0.000E+00  0.000E+00  0.000E+00  1.39022E+02  4.272E+00  9.087E+00  1.859E-03  8.344E-03  5.268E-04
   1    4   19     1    19    3.5450E+01  8.8688E-03   3.5441E+01  0.000E+00  0.000E+00  0.000E+00  1.38721E+02  4.271E+00  9.085E+00  1.859E-03  8.332E-03  5.363E-04
   1    4   20     1    20    3.5441E+01  8.8667E-03   3.5432E+01  0.000E+00  0.000E+00  0.000E+00  1.38421E+02  4.271E+00  9.084E+00  1.858E-03  8.321E-03  5.462E-04
   1    4   21     1    21    3.5432E+01  8.8647E-03   3.5423E+01  0.000E+00  0.000E+00  0.000E+00  1.38121E+02  4.271E+00  9.082E+00  1.858E-03  8.308E-03  5.566E-04
   1    4   22     1    22    3.5423E+01  8.8627E-03   3.5415E+01  0.000E+00  0.000E+00  0.000E+00  1.37820E+02  4.270E+00  9.080E+00  1.858E-03  8.295E-03  5.673E-04
   1    4   23     1    23    3.5415E+01  8.8607E-03   3.5406E+01  0.000E+00  0.000E+00  0.000E+00  1.37520E+02  4.270E+00  9.079E+00  1.858E-03  8.282E-03  5.783E-04
   1    4   24     1    24    3.5406E+01  8.8587E-03   3.5397E+01  0.000E+00  0.000E+00  0.000E+00  1.37219E+02  4.269E+00  9.077E+00  1.857E-03  8.269E-03  5.894E-04
   1    4   25     1    25    3.5397E+01  8.8567E-03   3.5388E+01  0.000E+00  0.000E+00  0.000E+00  1.36919E+02  4.269E+00  9.075E+00  1.857E-03  8.256E-03  6.006E-04
   1    4   26     1    26    3.5388E+01  8.8547E-03   3.5379E+01  0.000E+00  0.000E+00  0.000E+00  1.36618E+02  4.268E+00  9.074E+00  1.857E-03  8.243E-03  6.119E-04
   1    4   27     1    27    3.5379E+01  8.8526E-03   3.5370E+01  0.000E+00  0.000E+00  0.000E+00  1.36318E+02  4.268E+00  9.072E+00  1.857E-03  8.230E-03  6.230E-04
   1    4   28     1    28    3.5370E+01  8.8506E-03   3.5361E+01  0.000E+00  0.000E+00  0.000E+00  1.36018E+02  4.268E+00  9.070E+00  1.856E-03  8.217E-03  6.340E-04
   1    4   29     1    29    3.5361E+01  8.8486E-03   3.5353E+01  0.000E+00  0.000E+00  0.000E+00  1.35717E+02  4.267E+00  9.069E+00  1.856E-03  8.204E-03  6.447E-04
   1    4   30     1    30    3.5353E+01  8.8466E-03   3.5344E+01  0.000E+00  0.000E+00  0.000E+00  1.35417E+02  4.267E+00  9.067E+00  1.856E-03  8.192E-03  6.551E-04
   1    4   31     1    31    3.5344E+01  8.8446E-03   3.5335E+01  0.000E+00  0.000E+00  0.000E+00  1.35116E+02  4.266E+00  9.066E+00  1.856E-03  8.179E-03  6.652E-04
   1    4   32     1    32    3.5335E+01  8.8426E-03   3.5326E+01  0.000E+00  0.000E+00  0.000E+00  1.34816E+02  4.266E+00  9.064E+00  1.855E-03  8.168E-03  6.750E-04
   1    4   33     1    33    3.5326E+01  8.8406E-03   3.5317E+01  0.000E+00  0.000E+00  0.000E+00  1.34516E+02  4.266E+00  9.062E+00  1.855E-03  8.156E-03  6.847E-04
   1    4   34     1    34    3.5317E+01  8.8385E-03   3.5308E+01  0.000E+00  0.000E+00  0.000E+00  1.34215E+02  4.265E+00  9.061E+00  1.855E-03  8.144E-03  6.944E-04
   1    4   35     1    35    3.5308E+01  8.8365E-03   3.5300E+01  0.000E+00  0.000E+00  0.000E+00  1.33915E+02  4.265E+00  9.059E+00  1.855E-03  8.132E-03  7.043E-04
   1    4   36     1    36    3.5300E+01  8.8345E-03   3.5291E+01  0.000E+00  0.000E+00  0.000E+00  1.33614E+02  4.264E+00  9.057E+00  1.854E-03  8.120E-03  7.148E-04
   1    4   37     1    37    3.5291E+01  8.8325E-03   3.5282E+01  0.000E+00  0.000E+00  0.000E+00  1.33314E+02  4.264E+00  9.056E+00  1.854E-03  8.106E-03  7.264E-04
   1    4   38     1    38    3.5282E+01  8.8305E-03   3.5273E+01  0.000E+00  0.000E+00  0.000E+00  1.33013E+02  4.263E+00  9.054E+00  1.854E-03  8.091E-03  7.397E-04
   1    4   39     1    39    3.5273E+01  8.8285E-03   3.5264E+01  0.000E+00  0.000E+00  0.000E+00  1.32713E+02  4.263E+00  9.052E+00  1.854E-03  8.073E-03  7.554E-04
   1    4   40     1    40    3.5264E+01  8.8265E-03   3.5255E+01  0.000E+00  0.000E+00  0.000E+00  1.32413E+02  4.263E+00  9.051E+00  1.853E-03  8.052E-03  7.743E-04
   1    4   41     1    41    3.5255E+01  8.8245E-03   3.5247E+01  0.000E+00  0.000E+00  0.000E+00  1.32112E+02  4.262E+00  9.049E+00  1.853E-03  8.027E-03  7.973E-04
   1    4   42     1    42    3.5247E+01  8.8225E-03   3.5238E+01  0.000E+00  0.000E+00  0.000E+00  1.31812E+02  4.262E+00  9.047E+00  1.853E-03  7.997E-03  8.253E-04
   1    4   43     1    43    3.5238E+01  8.8204E-03   3.5229E+01  0.000E+00  0.000E+00  0.000E+00  1.31511E+02  4.261E+00  9.046E+00  1.852E-03  7.961E-03  8.591E-04
   1    4   44     1    44    3.5229E+01  8.8184E-03   3.5220E+01  0.000E+00  0.000E+00  0.000E+00  1.31211E+02  4.261E+00  9.044E+00  1.852E-03  7.919E-03  8.994E-04
   1    4   45     1    45    3.5220E+01  8.8164E-03   3.5211E+01  0.000E+00  0.000E+00  0.000E+00  1.30911E+02  4.261E+00  9.042E+00  1.852E-03  7.870E-03  9.468E-04
   1    4   46     1    46    3.5211E+01  8.8144E-03   3.5202E+01  0.000E+00  0.000E+00  0.000E+00  1.30610E+02  4.260E+00  9.041E+00  1.852E-03  7.813E-03  1.002E-03
   1    4   47     1    47    3.5202E+01  8.8124E-03   3.5194E+01  0.000E+00  0.000E+00  0.000E+00  1.30310E+02  4.260E+00  9.039E+00  1.851E-03  7.749E-03  1.064E-03
   1    4   48     1    48    3.5194E+01  8.8104E-03   3.5185E+01  0.000E+00  0.000E+00  0.000E+00  1.30009E+02  4.259E+00  9.037E+00  1.851E-03  7.677E-03  1.134E-03
   1    4   49     1    49    3.5185E+01  8.8084E-03   3.5176E+01  0.000E+00  0.000E+00  0.000E+00  1.29709E+02  4.259E+00  9.036E+00  1.851E-03  7.596E-03  1.212E-03
   1    4   50     1    50    3.5176E+01  8.8064E-03   3.5167E+01  0.000E+00  0.000E+00  0.000E+00  1.29408E+02  4.258E+00  9.034E+00  1.851E-03  7.509E-03  1.298E-03
   1    4   51     1    51    3.5167E+01  8.8044E-03   3.5158E+01  0.000E+00  0.000E+00  0.000E+00  1.29108E+02  4.258E+00  9.032E+00  1.850E-03  7.491E-03  1.313E-03
   1    4   52     1    52    3.5158E+01  8.8024E-03   3.5150E+01  0.000E+00  0.000E+00  0.000E+00  1.28808E+02  4.258E+00  9.031E+00  1.850E-03  7.476E-03  1.326E-03
   1    4   53     1    53    3.5150E+01  8.8004E-03   3.5141E+01  0.000E+00  0.000E+00  0.000E+00  1.28507E+02  4.257E+00  9.029E+00  1.850E-03  7.471E-03  1.329E-03
   1    4   54     1    54    3.5141E+01  8.7984E-03   3.5132E+01  0.000E+00  0.000E+00  0.000E+00  1.28207E+02  4.257E+00  9.027E+00  1.850E-03  7.472E-03  1.326E-03
   1    4   55     1    55    3.5132E+01  8.7964E-03   3.5123E+01  0.000E+00  0.000E+00  0.000E+00  1.27906E+02  4.256E+00  9.026E+00  1.849E-03  7.476E-03  1.321E-03
   1    4   56     1    56    3.5123E+01  8.7944E-03   3.5114E+01  0.000E+00  0.000E+00  0.000E+00  1.27606E+02  4.256E+00  9.024E+00  1.849E-03  7.563E-03  1.231E-03
   1    4   57     1    57    3.5114E+01  8.7924E-03   3.5106E+01  0.000E+00  0.000E+00  0.000E+00  1.27306E+02  4.256E+00  9.022E+00  1.849E-03  7.638E-03  1.154E-03
   1    4   58     1    58    3.5106E+01  8.7904E-03   3.5097E+01  0.000E+00  0.000E+00  0.000E+00  1.27005E+02  4.255E+00  9.021E+00  1.849E-03  7.703E-03  1.087E-03
   1    4   59     1    59    3.5097E+01  8.7883E-03   3.5088E+01  0.000E+00  0.000E+00  0.000E+00  1.26705E+02  4.255E+00  9.019E+00  1.848E-03  7.761E-03  1.027E-03
   1    4   60     1    60    3.5088E+01  8.7863E-03   3.5079E+01  0.000E+00  0.000E+00  0.000E+00  1.26404E+02  4.254E+00  9.017E+00  1.848E-03  7.811E-03  9.756E-04
   1    4   61     1    61    3.5079E+01  8.7843E-03   3.5070E+01  0.000E+00  0.000E+00  0.000E+00  1.26104E+02  4.254E+00  9.016E+00  1.848E-03  7.853E-03  9.313E-04
   1    4   62     1    62    3.5070E+01  8.7823E-03   3.5062E+01  0.000E+00  0.000E+00  0.000E+00  1.25803E+02  4.253E+00  9.014E+00  1.848E-03  7.888E-03  8.942E-04
   1    4   63     1    63    3.5062E+01  8.7803E-03   3.5053E+01  0.000E+00  0.000E+00  0.000E+00  1.25503E+02  4.253E+00  9.012E+00  1.847E-03  7.917E-03  8.638E-04
   1    4   64     1    64    3.5053E+01  8.7783E-03   3.5044E+01  0.000E+00  0.000E+00  0.000E+00  1.25203E+02  4.253E+00  9.011E+00  1.847E-03  7.939E-03  8.393E-04
   1    4   65     1    65    3.5044E+01  8.7763E-03   3.5035E+01  0.000E+00  0.000E+00  0.000E+00  1.24902E+02  4.252E+00  9.009E+00  1.847E-03  7.956E-03  8.201E-04
   1    4   66     1    66    3.5035E+01  8.7743E-03   3.5027E+01  0.000E+00  0.000E+00  0.000E+00  1.24602E+02  4.252E+00  9.007E+00  1.847E-03  7.969E-03  8.051E-04
   1    4   67     1    67    3.5027E+01  8.7723E-03   3.5018E+01  0.000E+00  0.000E+00  0.000E+00  1.24301E+02  4.251E+00  9.006E+00  1.846E-03  7.979E-03  7.934E-04
   1    4   68     1    68    3.5018E+01  8.7703E-03   3.5009E+01  0.000E+00  0.000E+00  0.000E+00  1.24001E+02  4.251E+00  9.004E+00  1.846E-03  7.986E-03  7.844E-04
   1    4   69     1    69    3.5009E+01  8.7683E-03   3.5000E+01  0.000E+00  0.000E+00  0.000E+00  1.23701E+02  4.251E+00  9.002E+00  1.846E-03  7.991E-03  7.771E-04
   1    4   70     1    70    3.5000E+01  8.7663E-03   3.4992E+01  0.000E+00  0.000E+00  0.000E+00  1.23400E+02  4.250E+00  9.001E+00  1.845E-03  7.995E-03  7.709E-04
   1    4   71     1    71    3.4992E+01  8.7643E-03   3.4983E+01  0.000E+00  0.000E+00  0.000E+00  1.23100E+02  4.250E+00  8.999E+00  1.845E-03  7.999E-03  7.654E-04
   1    4   72     1    72    3.4983E+01  8.7623E-03   3.4974E+01  0.000E+00  0.000E+00  0.000E+00  1.22799E+02  4.249E+00  8.997E+00  1.845E-03  8.002E-03  7.601E-04
   1    4   73     1    73    3.4974E+01  8.7603E-03   3.4965E+01  0.000E+00  0.000E+00  0.000E+00  1.22499E+02  4.249E+00  8.996E+00  1.845E-03  8.006E-03  7.546E-04
   1    4   74     1    74    3.4965E+01  8.7583E-03   3.4956E+01  0.000E+00  0.000E+00  0.000E+00  1.22199E+02  4.249E+00  8.994E+00  1.844E-03  8.009E-03  7.488E-04
   1    4   75     1    75    3.4956E+01  8.7563E-03   3.4948E+01  0.000E+00  0.000E+00  0.000E+00  1.21898E+02  4.248E+00  8.992E+00  1.844E-03  8.014E-03  7.426E-04
   1    4   76     1    76    3.4948E+01  8.7543E-03   3.4939E+01  0.000E+00  0.000E+00  0.000E+00  1.21598E+02  4.248E+00  8.991E+00  1.844E-03  8.019E-03  7.357E-04
   1    4   77     1    77    3.4939E+01  8.7523E-03   3.4930E+01  0.000E+00  0.000E+00  0.000E+00  1.21297E+02  4.247E+00  8.989E+00  1.844E-03  8.024E-03  7.281E-04
   1    4   78     1    78    3.4930E+01  8.7503E-03   3.4921E+01  0.000E+00  0.000E+00  0.000E+00  1.20997E+02  4.247E+00  8.987E+00  1.843E-03  8.030E-03  7.199E-04
   1    4   79     1    79    3.4921E+01  8.7483E-03   3.4913E+01  0.000E+00  0.000E+00  0.000E+00  1.20696E+02  4.246E+00  8.986E+00  1.843E-03  8.037E-03  7.111E-04
   1    4   80     1    80    3.4913E+01  8.7463E-03   3.4904E+01  0.000E+00  0.000E+00  0.000E+00  1.20396E+02  4.246E+00  8.984E+00  1.843E-03  8.045E-03  7.016E-04
   1    4   81     1    81    3.4904E+01  8.7444E-03   3.4895E+01  0.000E+00  0.000E+00  0.000E+00  1.20096E+02  4.246E+00  8.982E+00  1.843E-03  8.053E-03  6.914E-04
   1    4   82     1    82    3.4895E+01  8.7424E-03   3.4886E+01  0.000E+00  0.000E+00  0.000E+00  1.19795E+02  4.245E+00  8.981E+00  1.842E-03  8.062E-03  6.807E-04
   1    4   83     1    83    3.4886E+01  8.7404E-03   3.4878E+01  0.000E+00  0.000E+00  0.000E+00  1.19495E+02  4.245E+00  8.979E+00  1.842E-03  8.071E-03  6.695E-04
   1    4   84     1    84    3.4878E+01  8.7384E-03   3.4869E+01  0.000E+00  0.000E+00  0.000E+00  1.19194E+02  4.244E+00  8.977E+00  1.842E-03  8.081E-03  6.577E-04
   1    4   85     1    85    3.4869E+01  8.7364E-03   3.4860E+01  0.000E+00  0.000E+00  0.000E+00  1.18894E+02  4.244E+00  8.976E+00  1.842E-03  8.091E-03  6.455E-04
   1    4   86     1    86    3.4860E+01  8.7344E-03   3.4852E+01  0.000E+00  0.000E+00  0.000E+00  1.18594E+02  4.244E+00  8.974E+00  1.841E-03  8.102E-03  6.328E-04
   1    4   87     1    87    3.4852E+01  8.7324E-03   3.4843E+01  0.000E+00  0.000E+00  0.000E+00  1.18293E+02  4.243E+00  8.972E+00  1.841E-03  8.113E-03  6.197E-04
   1    4   88     1    88    3.4843E+01  8.7304E-03   3.4834E+01  0.000E+00  0.000E+00  0.000E+00  1.17993E+02  4.243E+00  8.971E+00  1.841E-03  8.124E-03  6.063E-04
   1    4   89     1    89    3.4834E+01  8.7284E-03   3.4825E+01  0.000E+00  0.000E+00  0.000E+00  1.17692E+02  4.242E+00  8.969E+00  1.841E-03  8.136E-03  5.925E-04
   1    4   90     1    90    3.4825E+01  8.7264E-03   3.4817E+01  0.000E+00  0.000E+00  0.000E+00  1.17392E+02  4.242E+00  8.968E+00  1.840E-03  8.148E-03  5.786E-04
   1    4   91     1    91    3.4817E+01  8.7244E-03   3.4808E+01  0.000E+00  0.000E+00  0.000E+00  1.17091E+02  4.241E+00  8.966E+00  1.840E-03  8.160E-03  5.645E-04
   1    4   92     1    92    3.4808E+01  8.7224E-03   3.4799E+01  0.000E+00  0.000E+00  0.000E+00  1.16791E+02  4.241E+00  8.964E+00  1.840E-03  8.172E-03  5.503E-04
   1    4   93     1    93    3.4799E+01  8.7204E-03   3.4790E+01  0.000E+00  0.000E+00  0.000E+00  1.16491E+02  4.241E+00  8.963E+00  1.840E-03  8.184E-03  5.362E-04
   1    4   94     1    94    3.4790E+01  8.7184E-03   3.4782E+01  0.000E+00  0.000E+00  0.000E+00  1.16190E+02  4.240E+00  8.961E+00  1.839E-03  8.196E-03  5.223E-04
   1    4   95     1    95    3.4782E+01  8.7164E-03   3.4773E+01  0.000E+00  0.000E+00  0.000E+00  1.15890E+02  4.240E+00  8.959E+00  1.839E-03  8.208E-03  5.085E-04
   1    4   96     1    96    3.4773E+01  8.7144E-03   3.4764E+01  0.000E+00  0.000E+00  0.000E+00  1.15589E+02  4.239E+00  8.958E+00  1.839E-03  8.219E-03  4.951E-04
   1    4   97     1    97    3.4764E+01  8.7125E-03   3.4756E+01  0.000E+00  0.000E+00  0.000E+00  1.15289E+02  4.239E+00  8.956E+00  1.838E-03  8.231E-03  4.819E-04
   1    4   98     1    98    3.4756E+01  8.7105E-03   3.4747E+01  0.000E+00  0.000E+00  0.000E+00  1.14989E+02  4.239E+00  8.954E+00  1.838E-03  8.242E-03  4.689E-04
   1    4   99     1    99    3.4747E+01  8.7085E-03   3.4738E+01  0.000E+00  0.000E+00  0.000E+00  1.14688E+02  4.238E+00  8.953E+00  1.838E-03  8.253E-03  4.559E-04
   1    4  100     1   100    3.4738E+01  8.7065E-03   3.4729E+01  0.000E+00  0.000E+00  0.000E+00  1.14388E+02  4.238E+00  8.951E+00  1.838E-03  8.264E-03  4.427E-04



1
  VOLUMETRIC BUDGET FOR UNSATURATED ZONE BENEATH STREAMS AT END OF TIME STEP    30 STRESS PERIOD   6
  ------------------------------------------------------------------------------------------------

    CUMULATIVE VOLUMES             L**3    RATES FOR THIS TIME STEP         L**3/T
    ------------------                     ------------------------


          STREAM LOSS =      5573343.0000            STREAM LOSS =            0.8806
    CHANGE IN STORAGE =      1603602.1250      CHANGE IN STORAGE =        7.2051E-02
       RECHARGE TO GW =      3972651.0000         RECHARGE TO GW =            0.8085

             TOTAL IN =      5573343.0000               TOTAL IN =            0.8806

            TOTAL OUT =      5576253.0000              TOTAL OUT =            0.8806

             IN - OUT =        -2910.0000               IN - OUT =       -4.1723E-07

  PERCENT DISCREPANCY =           -0.01      PERCENT DISCREPANCY =            -0.00



1
  VOLUMETRIC BUDGET FOR ENTIRE MODEL AT END OF TIME STEP   30, STRESS PERIOD   6
  ------------------------------------------------------------------------------

     CUMULATIVE VOLUMES      L**3       RATES FOR THIS TIME STEP      L**3/T
     ------------------                 ------------------------

           IN:                                      IN:
           ---                                      ---
             STORAGE     =    36618900.0000               STORAGE     =           1.3337
       CONSTANT HEAD     =           0.0000         CONSTANT HEAD     =           0.0000
               WELLS     =           0.0000                 WELLS     =           0.0000
     HEAD DEP BOUNDS     =           0.0000       HEAD DEP BOUNDS     =           0.0000
      STREAM LEAKAGE     =     3972645.7500        STREAM LEAKAGE     =           0.8085

                TOTAL IN =    40591544.0000                  TOTAL IN =           2.1422

          OUT:                                     OUT:
          ----                                     ----
             STORAGE     =      804263.8750               STORAGE     =       8.8117E-02
       CONSTANT HEAD     =           0.0000         CONSTANT HEAD     =           0.0000
               WELLS     =    30792960.0000                 WELLS     =           1.7200
     HEAD DEP BOUNDS     =     8994311.0000       HEAD DEP BOUNDS     =           0.3340
      STREAM LEAKAGE     =           0.0000        STREAM LEAKAGE     =           0.0000

               TOTAL OUT =    40591536.0000                 TOTAL OUT =           2.1422

                IN - OUT =           8.0000                  IN - OUT =      -2.3842E-07

     PERCENT DISCREPANCY =           0.00         PERCENT DISCREPANCY =          -0.00






         TIME SUMMARY AT END OF TIME STEP   30 IN STRESS PERIOD    6
                    SECONDS     MINUTES      HOURS       DAYS        YEARS
                    -----------------------------------------------------------
   TIME STEP LENGTH 2.49961E+05  4166.0      69.434      2.8931     7.92080E-03
 STRESS PERIOD TIME 2.59200E+06  43200.      720.00      30.000     8.21355E-02
         TOTAL TIME 1.55520E+07 2.59200E+05  4320.0      180.00     0.49281    
1
1
                            STRESS PERIOD NO.    7, LENGTH =   2592000.    
                            -----------------------------------------------

                              NUMBER OF TIME STEPS =    30

                               MULTIPLIER FOR DELT =     1.100

                            INITIAL TIME STEP SIZE =   15757.40    

 REUSING NON-PARAMETER WELLS FROM LAST STRESS PERIOD

      1 WELL 

 REUSING NON-PARAMETER GHB CELLS FROM LAST STRESS PERIOD

      7 GHB CELLS



 CLASSIFICATION & COUNT OF STREAM SEGMENTS BASED ON SOURCE OF INFLOW:

                HEADWATER     DIVERSION     RECEIVES TRIBUTARY FLOW
                ---------     ---------     -----------------------
                     1              0               0



                    INPUT DATA FOR EACH STREAM SEGMENT
 ---------------------------------------------------------------------------------------------

 SEGMENT    SEG.     INFLOW   OVERLAND   STREAM    STREAM   ICALC  OUTFLOW  DIVERSION PRIORITY
    NO.    LENGTH     RATE     RUNOFF      ET       PPT.    METH.  TO SEG.  FROM SEG.    NO.

      1  2.000E+04 4.407E+01 0.000E+00 0.000E+00 0.000E+00    2        0        0        0


         STREAMBED PROPERTIES AND STREAM DIMENSIONS

 SEGMENT     BED HYD. COND.      BED THICKNESS     ELEV.-TOP OF BED     WIDTH OF STREAM     DEPTH OF STREAM    STREAM ROUGHNESS
    No.     UPPER     LOWER     UPPER     LOWER     UPPER     LOWER     UPPER     LOWER     UPPER     LOWER   CHANNEL      BANK

     1  3.500E-07 3.500E-07                                                                                 3.000E-02 4.000E-02

  EIGHT POINT CROSS-SECTION DATA FOR SEGMENTS WITH ICALC = 2
    X VALUES X VALUES START FROM LEFT SIDE LOOKING DOWNSTREAM

     SEGMENT NO.        X1        X2        X3        X4        X5        X6        X7        X8
            1      0.000E+00 2.000E+00 4.000E+00 6.000E+00 8.000E+00 1.000E+01 1.200E+01 1.400E+01

    Z VALUES ARE RELATIVE TO STREAMBED ELEVATION

     SEGMENT NO.          Z1        Z2        Z3        Z4        Z5        Z6        Z7        Z8
            1      6.000E+00 4.500E+00 3.500E+00 0.000E+00 3.000E-01 3.500E+00 4.500E+00 6.000E+00



 
 SOLVING FOR HEAD 
                                                   Max.-Head-Change                         Max.-Flux-Residual
  Residual-Control   Outer-Iter.   Inner-Iter.     Column Row Layer    Maximum-Head-Change  Column Row Layer    Maximum-Flux-Residual          L2-NORM 
          0                 1           2            55    5     1      -0.1270682418E+01      55    5    1        -0.4775685089E+00      0.6789350970E+00
          0                 2           2            55    5     1       0.1166083209E+00      55    5    1         0.4640975053E-01      0.6686234704E-01
          0                 3           2            55    5     1      -0.1041275070E-01      55    5    1        -0.4185170455E-02      0.6031080168E-02
          0                 4           2            55    5     1       0.8263851248E-03      55    5    1         0.3351663073E-03      0.4830188239E-03
          0                 5           1            55    5     1      -0.5756815725E-04      55    5    1        -0.2356228152E-04      0.3395652977E-04
          0                 6           1            55    5     1       0.3456804069E-05      55    5    1         0.1427779134E-05      0.2057626478E-05
          0                 7           1            55    5     1      -0.1746678206E-06      55    5    1        -0.7280259684E-07      0.1049184389E-06

    ------------------------------------------------
       NWT REQUIRED            7 OUTER ITERATIONS 
       AND A TOTAL OF         11 INNER ITERATIONS.
    ------------------------------------------------

 NO OUTPUT CONTROL FOR STRESS PERIOD    7   TIME STEP    1
 
 SOLVING FOR HEAD 
                                                   Max.-Head-Change                         Max.-Flux-Residual
  Residual-Control   Outer-Iter.   Inner-Iter.     Column Row Layer    Maximum-Head-Change  Column Row Layer    Maximum-Flux-Residual          L2-NORM 
          0                 1           2            55    5     1      -0.8599225138E+00      55    5    1        -0.2658926177E+00      0.4057630091E+00
          0                 2           2            55    5     1       0.7720802631E-01      55    5    1         0.2580058208E-01      0.3909851949E-01
          0                 3           2            55    5     1      -0.6890456099E-02      55    5    1        -0.2327831906E-02      0.3533295644E-02
          0                 4           2            55    5     1       0.5467682824E-03      55    5    1         0.1864135298E-03      0.2830837712E-03
          0                 5           1            55    5     1      -0.3808899414E-04      55    5    1        -0.1310497886E-04      0.1990179718E-04
          0                 6           1            55    5     1       0.2287134830E-05      55    5    1         0.7941085354E-06      0.1205966985E-05
          0                 7           1            55    5     1      -0.1155658944E-06      55    5    1        -0.4049167313E-07      0.6149221515E-07

    ------------------------------------------------
       NWT REQUIRED            7 OUTER ITERATIONS 
       AND A TOTAL OF         11 INNER ITERATIONS.
    ------------------------------------------------

 NO OUTPUT CONTROL FOR STRESS PERIOD    7   TIME STEP    2
 
 SOLVING FOR HEAD 
                                                   Max.-Head-Change                         Max.-Flux-Residual
  Residual-Control   Outer-Iter.   Inner-Iter.     Column Row Layer    Maximum-Head-Change  Column Row Layer    Maximum-Flux-Residual          L2-NORM 
          0                 1           2            55    5     1      -0.6400689375E+00      55    5    1        -0.1638713339E+00      0.2947142917E+00
          0                 2           2            55    5     1       0.5678504452E-01      55    5    1         0.1596621997E-01      0.2816160479E-01
          0                 3           2            55    5     1      -0.5059313440E-02      55    5    1        -0.1440274234E-02      0.2555216456E-02
          0                 4           2            55    5     1       0.4013418248E-03      55    5    1         0.1153398198E-03      0.2049933761E-03
          0                 5           1            55    5     1      -0.2795698904E-04      55    5    1        -0.8108441945E-05      0.1441437788E-04
          0                 6           1            55    5     1       0.1678734010E-05      55    5    1         0.4913387430E-06      0.8734574349E-06
          0                 7           1            55    5     1      -0.8482411207E-07      55    5    1        -0.2505341268E-07      0.4453746260E-07

    ------------------------------------------------
       NWT REQUIRED            7 OUTER ITERATIONS 
       AND A TOTAL OF         11 INNER ITERATIONS.
    ------------------------------------------------

 NO OUTPUT CONTROL FOR STRESS PERIOD    7   TIME STEP    3
 
 SOLVING FOR HEAD 
                                                   Max.-Head-Change                         Max.-Flux-Residual
  Residual-Control   Outer-Iter.   Inner-Iter.     Column Row Layer    Maximum-Head-Change  Column Row Layer    Maximum-Flux-Residual          L2-NORM 
          0                 1           2            55    5     1      -0.5147842136E+00      55    5    1        -0.1110425708E+00      0.2439106808E+00
          0                 2           2            55    5     1       0.4402731062E-01      55    5    1         0.1086402443E-01      0.2346574420E-01
          0                 3           2            55    5     1      -0.3913611158E-02      55    5    1        -0.9795249859E-03      0.2140125182E-02
          0                 4           2            55    5     1       0.3102940405E-03      55    5    1         0.7844617854E-04      0.1720384633E-03
          0                 5           1            55    5     1      -0.2161233568E-04      55    5    1        -0.5514776716E-05      0.1210194277E-04
          0                 6           1            55    5     1       0.1297744055E-05      55    5    1         0.3341732588E-06      0.7333578125E-06
          0                 7           1            55    5     1      -0.6557310878E-07      55    5    1        -0.1703952535E-07      0.3739363568E-07

    ------------------------------------------------
       NWT REQUIRED            7 OUTER ITERATIONS 
       AND A TOTAL OF         11 INNER ITERATIONS.
    ------------------------------------------------

 NO OUTPUT CONTROL FOR STRESS PERIOD    7   TIME STEP    4
 
 SOLVING FOR HEAD 
                                                   Max.-Head-Change                         Max.-Flux-Residual
  Residual-Control   Outer-Iter.   Inner-Iter.     Column Row Layer    Maximum-Head-Change  Column Row Layer    Maximum-Flux-Residual          L2-NORM 
          0                 1           2            55    5     1      -0.4391203729E+00      55    5    1        -0.8141019932E-01      0.2169844595E+00
          0                 2           2            55    5     1       0.3497061746E-01      55    5    1         0.7988252980E-02      0.2140518748E-01
          0                 3           2            55    6     1      -0.3020983391E-02      55    5    1        -0.7196937380E-03      0.2012537478E-02
          0                 4           2            55    6     1       0.2386282690E-03      55    5    1         0.5764562886E-04      0.1631513268E-03
          0                 5           1            55    6     1      -0.1661101475E-04      55    5    1        -0.4052436108E-05      0.1149064893E-04
          0                 6           1            55    6     1       0.9973880979E-06      55    5    1         0.2455616013E-06      0.6963667064E-06

    ------------------------------------------------
       NWT REQUIRED            6 OUTER ITERATIONS 
       AND A TOTAL OF         10 INNER ITERATIONS.
    ------------------------------------------------

 NO OUTPUT CONTROL FOR STRESS PERIOD    7   TIME STEP    5
 
 SOLVING FOR HEAD 
                                                   Max.-Head-Change                         Max.-Flux-Residual
  Residual-Control   Outer-Iter.   Inner-Iter.     Column Row Layer    Maximum-Head-Change  Column Row Layer    Maximum-Flux-Residual          L2-NORM 
          0                 1           2            55    5     1      -0.3926461488E+00      55    5    1        -0.6348475391E-01      0.2010134427E+00
          0                 2           2            55    6     1       0.3311005352E-01      55    5    1         0.6240390525E-02      0.2001997512E-01
          0                 3           2            55    6     1      -0.2888110155E-02      55    5    1        -0.5621152567E-03      0.1889961663E-02
          0                 4           2            55    6     1       0.2278565085E-03      55    5    1         0.4502505261E-04      0.1536703341E-03
          0                 5           1            55    6     1      -0.1585576254E-04      55    5    1        -0.3165213160E-05      0.1083280697E-04
          0                 6           1            55    6     1       0.9519919458E-06      55    5    1         0.1917994332E-06      0.6565799130E-06

    ------------------------------------------------
       NWT REQUIRED            6 OUTER ITERATIONS 
       AND A TOTAL OF         10 INNER ITERATIONS.
    ------------------------------------------------

 NO OUTPUT CONTROL FOR STRESS PERIOD    7   TIME STEP    6
 
 SOLVING FOR HEAD 
                                                   Max.-Head-Change                         Max.-Flux-Residual
  Residual-Control   Outer-Iter.   Inner-Iter.     Column Row Layer    Maximum-Head-Change  Column Row Layer    Maximum-Flux-Residual          L2-NORM 
          0                 1           2            55    5     1      -0.3674878674E+00      55    5    1        -0.5164721107E-01      0.1908782101E+00
          0                 2           2            55    6     1       0.3198216849E-01      55    5    1         0.5081969654E-02      0.1905236432E-01
          0                 3           2            55    7     1      -0.2791791557E-02      55    5    1        -0.4577277591E-03      0.1807368208E-02
          0                 4           2            55    7     1       0.2209007280E-03      55    5    1         0.3666429519E-04      0.1475188036E-03
          0                 5           1            55    7     1      -0.1537857201E-04      55    5    1        -0.2577455662E-05      0.1041370858E-04
          0                 6           1            55    7     1       0.9233690930E-06      55    5    1         0.1561836740E-06      0.6313225130E-06

    ------------------------------------------------
       NWT REQUIRED            6 OUTER ITERATIONS 
       AND A TOTAL OF         10 INNER ITERATIONS.
    ------------------------------------------------

 NO OUTPUT CONTROL FOR STRESS PERIOD    7   TIME STEP    7
 
 SOLVING FOR HEAD 
                                                   Max.-Head-Change                         Max.-Flux-Residual
  Residual-Control   Outer-Iter.   Inner-Iter.     Column Row Layer    Maximum-Head-Change  Column Row Layer    Maximum-Flux-Residual          L2-NORM 
          0                 1           2            55    5     1      -0.3553729615E+00      55    5    1        -0.4399183590E-01      0.1839507027E+00
          0                 2           2            55    7     1       0.3175327339E-01      55    5    1         0.4328925968E-02      0.1840385676E-01
          0                 3           2            55    7     1      -0.2796856959E-02      55    5    1        -0.3898966291E-03      0.1754854994E-02
          0                 4           2            55    7     1       0.2210755572E-03      55    5    1         0.3123128770E-04      0.1438585046E-03
          0                 5           1            55    7     1      -0.1538555339E-04      55    5    1        -0.2195518545E-05      0.1017402241E-04
          0                 6           1            55    7     1       0.9237227126E-06      55    5    1         0.1330398103E-06      0.6170423033E-06

    ------------------------------------------------
       NWT REQUIRED            6 OUTER ITERATIONS 
       AND A TOTAL OF         10 INNER ITERATIONS.
    ------------------------------------------------

 NO OUTPUT CONTROL FOR STRESS PERIOD    7   TIME STEP    8
 
 SOLVING FOR HEAD 
                                                   Max.-Head-Change                         Max.-Flux-Residual
  Residual-Control   Outer-Iter.   Inner-Iter.     Column Row Layer    Maximum-Head-Change  Column Row Layer    Maximum-Flux-Residual          L2-NORM 
          0                 1           2            55    5     1      -0.3519438587E+00      55    5    1        -0.3865275784E-01      0.1788827589E+00
          0                 2           2            55    7     1       0.3185527541E-01      55    5    1         0.3801091501E-02      0.1792870388E-01
          0                 3           2            55    7     1      -0.2798368431E-02      55    5    1        -0.3423715527E-03      0.1718888091E-02
          0                 4           2            55    7     1       0.2208997457E-03      55    5    1         0.2742460124E-04      0.1416031679E-03
          0                 5           1            55    7     1      -0.1536581126E-04      55    4    1         0.1957483105E-05      0.1003789770E-04
          0                 6           1            55    7     1       0.9224244620E-06      55    4    1        -0.1193610082E-06      0.6091799081E-06

    ------------------------------------------------
       NWT REQUIRED            6 OUTER ITERATIONS 
       AND A TOTAL OF         10 INNER ITERATIONS.
    ------------------------------------------------

 NO OUTPUT CONTROL FOR STRESS PERIOD    7   TIME STEP    9
 
 SOLVING FOR HEAD 
                                                   Max.-Head-Change                         Max.-Flux-Residual
  Residual-Control   Outer-Iter.   Inner-Iter.     Column Row Layer    Maximum-Head-Change  Column Row Layer    Maximum-Flux-Residual          L2-NORM 
          0                 1           2            55    5     1      -0.3554409857E+00      55    5    1        -0.3485453416E-01      0.1750625483E+00
          0                 2           2            55    7     1       0.3208825183E-01      55    5    1         0.3423058475E-02      0.1756849791E-01
          0                 3           2            55    7     1      -0.2809736634E-02      55    5    1        -0.3083535268E-03      0.1693900880E-02
          0                 4           2            55    7     1       0.2214197258E-03      55    4    1        -0.2626263202E-04      0.1403003669E-03
          0                 5           1            55    7     1      -0.1539143648E-04      55    4    1         0.1929932417E-05      0.9973878816E-05
          0                 6           1            55    7     1       0.9237778095E-06      55    4    1        -0.1179486731E-06      0.6058608531E-06

    ------------------------------------------------
       NWT REQUIRED            6 OUTER ITERATIONS 
       AND A TOTAL OF         10 INNER ITERATIONS.
    ------------------------------------------------

 NO OUTPUT CONTROL FOR STRESS PERIOD    7   TIME STEP   10
 
 SOLVING FOR HEAD 
                                                   Max.-Head-Change                         Max.-Flux-Residual
  Residual-Control   Outer-Iter.   Inner-Iter.     Column Row Layer    Maximum-Head-Change  Column Row Layer    Maximum-Flux-Residual          L2-NORM 
          0                 1           2            55    5     1      -0.3643542010E+00      55    5    1        -0.3202181566E-01      0.1720853279E+00
          0                 2           2            55    7     1       0.3254297832E-01      55    5    1         0.3138835593E-02      0.1728557635E-01
          0                 3           2            55    7     1      -0.2838817344E-02      55    5    1        -0.2827937462E-03      0.1676202734E-02
          0                 4           2            55    7     1       0.2232400333E-03      55    4    1        -0.2595744365E-04      0.1396430540E-03
          0                 5           1            55    7     1      -0.1550359342E-04      55    4    1         0.1922015326E-05      0.9960459094E-05
          0                 6           1            55    7     1       0.9302209180E-06      55    4    1        -0.1177956426E-06      0.6058103181E-06

    ------------------------------------------------
       NWT REQUIRED            6 OUTER ITERATIONS 
       AND A TOTAL OF         10 INNER ITERATIONS.
    ------------------------------------------------

 NO OUTPUT CONTROL FOR STRESS PERIOD    7   TIME STEP   11
 
 SOLVING FOR HEAD 
                                                   Max.-Head-Change                         Max.-Flux-Residual
  Residual-Control   Outer-Iter.   Inner-Iter.     Column Row Layer    Maximum-Head-Change  Column Row Layer    Maximum-Flux-Residual          L2-NORM 
          0                 1           2            55    5     1      -0.3778796579E+00      55    5    1        -0.2983408731E-01      0.1696611134E+00
          0                 2           2            55    7     1       0.3327123732E-01      55    5    1         0.2917032986E-02      0.1705950706E-01
          0                 3           2            55    7     1      -0.2889962919E-02      55    4    1         0.2667747664E-03      0.1663717358E-02
          0                 4           2            55    7     1       0.2266853086E-03      55    4    1        -0.2583180017E-04      0.1394431470E-03
          0                 5           1            55    7     1      -0.1572378310E-04      55    4    1         0.1928216420E-05      0.9983783902E-05
          0                 6           1            55    7     1       0.9430015037E-06      55    4    1        -0.1185722001E-06      0.6081955674E-06

    ------------------------------------------------
       NWT REQUIRED            6 OUTER ITERATIONS 
       AND A TOTAL OF         10 INNER ITERATIONS.
    ------------------------------------------------

 NO OUTPUT CONTROL FOR STRESS PERIOD    7   TIME STEP   12
 
 SOLVING FOR HEAD 
                                                   Max.-Head-Change                         Max.-Flux-Residual
  Residual-Control   Outer-Iter.   Inner-Iter.     Column Row Layer    Maximum-Head-Change  Column Row Layer    Maximum-Flux-Residual          L2-NORM 
          0                 1           2            55    5     1      -0.3957139249E+00      55    5    1        -0.2811871637E-01      0.1676188699E+00
          0                 2           2            55    7     1       0.3430363829E-01      55    5    1         0.2740506676E-02      0.1686068826E-01
          0                 3           2            55    7     1      -0.2965598803E-02      55    4    1         0.2632814913E-03      0.1653516074E-02
          0                 4           2            55    7     1       0.2319247872E-03      55    4    1        -0.2583855179E-04      0.1394663309E-03
          0                 5           1            55    7     1      -0.1606249220E-04      55    4    1         0.1945082251E-05      0.1002794254E-04
          0                 6           1            55    7     1       0.9626945898E-06      55    4    1        -0.1200712765E-06      0.6121000836E-06

    ------------------------------------------------
       NWT REQUIRED            6 OUTER ITERATIONS 
       AND A TOTAL OF         10 INNER ITERATIONS.
    ------------------------------------------------

 NO OUTPUT CONTROL FOR STRESS PERIOD    7   TIME STEP   13
 
 SOLVING FOR HEAD 
                                                   Max.-Head-Change                         Max.-Flux-Residual
  Residual-Control   Outer-Iter.   Inner-Iter.     Column Row Layer    Maximum-Head-Change  Column Row Layer    Maximum-Flux-Residual          L2-NORM 
          0                 1           2            55    5     1      -0.4180368331E+00      55    5    1        -0.2681291990E-01      0.1658945215E+00
          0                 2           2            55    7     1       0.3566371419E-01      55    5    1         0.2602561740E-02      0.1669004873E-01
          0                 3           2            55    7     1      -0.3067463014E-02      55    4    1         0.2610101037E-03      0.1645693577E-02
          0                 4           2            55    7     1       0.2390697026E-03      55    4    1        -0.2595568181E-04      0.1397085681E-03
          0                 5           1            55    7     1      -0.1652593837E-04      55    4    1         0.1971002751E-05      0.1009214322E-04
          0                 6           1            55    7     1       0.9896054497E-06      55    4    1        -0.1221972008E-06      0.6174795867E-06

    ------------------------------------------------
       NWT REQUIRED            6 OUTER ITERATIONS 
       AND A TOTAL OF         10 INNER ITERATIONS.
    ------------------------------------------------

 NO OUTPUT CONTROL FOR STRESS PERIOD    7   TIME STEP   14
 
 SOLVING FOR HEAD 
                                                   Max.-Head-Change                         Max.-Flux-Residual
  Residual-Control   Outer-Iter.   Inner-Iter.     Column Row Layer    Maximum-Head-Change  Column Row Layer    Maximum-Flux-Residual          L2-NORM 
          0                 1           2            55    5     1      -0.4444260819E+00      55    5    1        -0.2574056947E-01      0.1643883461E+00
          0                 2           2            55    7     1       0.3736040241E-01      55    5    1         0.2485887360E-02      0.1653812607E-01
          0                 3           2            55    7     1      -0.3196023130E-02      55    4    1         0.2594585668E-03      0.1639244879E-02
          0                 4           2            55    7     1       0.2481304176E-03      55    4    1        -0.2613578512E-04      0.1400750552E-03
          0                 5           1            55    7     1      -0.1711319776E-04      55    4    1         0.2002361944E-05      0.1016913476E-04
          0                 6           1            55    7     1       0.1023599492E-05      55    4    1        -0.1247241004E-06      0.6238941414E-06
          0                 7           1            55    7     1      -0.5165816987E-07      55    4    1         0.6395717733E-08      0.3191695736E-07

    ------------------------------------------------
       NWT REQUIRED            7 OUTER ITERATIONS 
       AND A TOTAL OF         11 INNER ITERATIONS.
    ------------------------------------------------

 NO OUTPUT CONTROL FOR STRESS PERIOD    7   TIME STEP   15
 
 SOLVING FOR HEAD 
                                                   Max.-Head-Change                         Max.-Flux-Residual
  Residual-Control   Outer-Iter.   Inner-Iter.     Column Row Layer    Maximum-Head-Change  Column Row Layer    Maximum-Flux-Residual          L2-NORM 
          0                 1           2            55    5     1      -0.4751255124E+00      55    5    1        -0.2488018103E-01      0.1629557528E+00
          0                 2           2            55    7     1       0.3940019511E-01      55    5    1         0.2387738780E-02      0.1639964014E-01
          0                 3           2            55    7     1      -0.3351476483E-02      55    4    1         0.2584861693E-03      0.1633841355E-02
          0                 4           2            55    7     1       0.2590927341E-03      55    4    1        -0.2636448748E-04      0.1405270407E-03
          0                 5           1            55    7     1      -0.1782142182E-04      55    4    1         0.2037984131E-05      0.1025518552E-04
          0                 6           1            55    7     1       0.1064413107E-05      55    4    1        -0.1275750741E-06      0.6310869869E-06
          0                 7           1            55    7     1      -0.5368457842E-07      55    4    1         0.6555226584E-08      0.3232723242E-07

    ------------------------------------------------
       NWT REQUIRED            7 OUTER ITERATIONS 
       AND A TOTAL OF         11 INNER ITERATIONS.
    ------------------------------------------------

 NO OUTPUT CONTROL FOR STRESS PERIOD    7   TIME STEP   16
 
 SOLVING FOR HEAD 
                                                   Max.-Head-Change                         Max.-Flux-Residual
  Residual-Control   Outer-Iter.   Inner-Iter.     Column Row Layer    Maximum-Head-Change  Column Row Layer    Maximum-Flux-Residual          L2-NORM 
          0                 1           2            55    5     1      -0.5102089695E+00      55    5    1        -0.2417488409E-01      0.1615862977E+00
          0                 2           2            55    7     1       0.4178591159E-01      55    5    1         0.2302019019E-02      0.1626316178E-01
          0                 3           2            55    7     1      -0.3533695687E-02      55    4    1         0.2578728611E-03      0.1628143047E-02
          0                 4           2            55    7     1       0.2719158397E-03      55    4    1        -0.2662003876E-04      0.1409446017E-03
          0                 5           1            55    7     1      -0.1864578155E-04      55    4    1         0.2076108379E-05      0.1034125855E-04
          0                 6           1            55    7     1       0.1111652132E-05      55    4    1        -0.1306335831E-06      0.6384947462E-06
          0                 7           1            55    7     1      -0.5602029893E-07      55    4    1         0.6728168245E-08      0.3275792186E-07

    ------------------------------------------------
       NWT REQUIRED            7 OUTER ITERATIONS 
       AND A TOTAL OF         11 INNER ITERATIONS.
    ------------------------------------------------

 NO OUTPUT CONTROL FOR STRESS PERIOD    7   TIME STEP   17
 
 SOLVING FOR HEAD 
                                                   Max.-Head-Change                         Max.-Flux-Residual
  Residual-Control   Outer-Iter.   Inner-Iter.     Column Row Layer    Maximum-Head-Change  Column Row Layer    Maximum-Flux-Residual          L2-NORM 
          0                 1           2            55    5     1      -0.5498809061E+00      55    5    1        -0.2359732570E-01      0.1602389053E+00
          0                 2           2            54    7     1       0.4479965767E-01      55    5    1         0.2225305777E-02      0.1612805263E-01
          0                 3           2            54    7     1      -0.3766350300E-02      55    4    1         0.2574703675E-03      0.1622163088E-02
          0                 4           2            54    7     1       0.2884898599E-03      55    4    1        -0.2688711448E-04      0.1413220149E-03
          0                 5           1            54    7     1      -0.1972089113E-04      55    4    1         0.2115432005E-05      0.1042624500E-04
          0                 6           1            54    7     1       0.1173563842E-05      55    4    1        -0.1338075482E-06      0.6460177021E-06
          0                 7           1            54    7     1      -0.5908850228E-07      55    4    1         0.6909760764E-08      0.3320377189E-07

    ------------------------------------------------
       NWT REQUIRED            7 OUTER ITERATIONS 
       AND A TOTAL OF         11 INNER ITERATIONS.
    ------------------------------------------------

 NO OUTPUT CONTROL FOR STRESS PERIOD    7   TIME STEP   18
 
 SOLVING FOR HEAD 
                                                   Max.-Head-Change                         Max.-Flux-Residual
  Residual-Control   Outer-Iter.   Inner-Iter.     Column Row Layer    Maximum-Head-Change  Column Row Layer    Maximum-Flux-Residual          L2-NORM 
          0                 1           2            55    5     1      -0.5944302200E+00      55    5    1        -0.2313618273E-01      0.1588818220E+00
          0                 2           2            54    7     1       0.4821801475E-01      55    5    1         0.2155512251E-02      0.1599397310E-01
          0                 3           2            54    7     1      -0.4030493757E-02      55    4    1         0.2571504532E-03      0.1616142225E-02
          0                 4           2            54    7     1       0.3071557211E-03      55    4    1        -0.2715238748E-04      0.1416729581E-03
          0                 5           1            54    7     1      -0.2091797105E-04      55    4    1         0.2154831676E-05      0.1050966547E-04
          0                 6           1            54    7     1       0.1241760127E-05      55    4    1        -0.1370179223E-06      0.6535325325E-06
          0                 7           1            54    7     1      -0.6244284768E-07      55    4    1         0.7095925625E-08      0.3365574018E-07

    ------------------------------------------------
       NWT REQUIRED            7 OUTER ITERATIONS 
       AND A TOTAL OF         11 INNER ITERATIONS.
    ------------------------------------------------

 NO OUTPUT CONTROL FOR STRESS PERIOD    7   TIME STEP   19
 
 SOLVING FOR HEAD 
                                                   Max.-Head-Change                         Max.-Flux-Residual
  Residual-Control   Outer-Iter.   Inner-Iter.     Column Row Layer    Maximum-Head-Change  Column Row Layer    Maximum-Flux-Residual          L2-NORM 
          0                 1           3            55    5     1      -0.6437232382E+00      55    5    1        -0.2272911785E-01      0.1574880140E+00
          0                 2           2            54    7     1       0.5191194247E-01      55    5    1         0.2085886558E-02      0.1585652649E-01
          0                 3           2            54    7     1      -0.4314243993E-02      55    4    1         0.2566276835E-03      0.1609623332E-02
          0                 4           2            54    7     1       0.3270340213E-03      55    4    1        -0.2738552815E-04      0.1419558147E-03
          0                 5           1            54    7     1      -0.2218025809E-04      55    4    1         0.2191790162E-05      0.1058810057E-04
          0                 6           1            54    7     1       0.1313012927E-05      55    4    1        -0.1400953282E-06      0.6607955264E-06
          0                 7           1            54    7     1      -0.6592508269E-07      55    4    1         0.7278149639E-08      0.3410066880E-07

    ------------------------------------------------
       NWT REQUIRED            7 OUTER ITERATIONS 
       AND A TOTAL OF         12 INNER ITERATIONS.
    ------------------------------------------------

 NO OUTPUT CONTROL FOR STRESS PERIOD    7   TIME STEP   20
 
 SOLVING FOR HEAD 
                                                   Max.-Head-Change                         Max.-Flux-Residual
  Residual-Control   Outer-Iter.   Inner-Iter.     Column Row Layer    Maximum-Head-Change  Column Row Layer    Maximum-Flux-Residual          L2-NORM 
          0                 1           3            55    5     1      -0.6977020893E+00      55    5    1        -0.2237488064E-01      0.1560557702E+00
          0                 2           2            54    7     1       0.5584165580E-01      55    6    1         0.2050789035E-02      0.1572155211E-01
          0                 3           2            54    7     1      -0.4613693545E-02      53    4    1         0.2595363882E-03      0.1603523036E-02
          0                 4           2            54    7     1       0.3478571065E-03      53    4    1        -0.2780678508E-04      0.1422291478E-03
          0                 5           1            54    7     1      -0.2349348407E-04      53    4    1         0.2238443196E-05      0.1066344464E-04
          0                 6           1            54    7     1       0.1386706085E-05      53    4    1        -0.1435931782E-06      0.6677856358E-06
          0                 7           1            54    7     1      -0.6951110496E-07      52    4    1         0.7508107025E-08      0.3453358473E-07

    ------------------------------------------------
       NWT REQUIRED            7 OUTER ITERATIONS 
       AND A TOTAL OF         12 INNER ITERATIONS.
    ------------------------------------------------

 NO OUTPUT CONTROL FOR STRESS PERIOD    7   TIME STEP   21
 
 SOLVING FOR HEAD 
                                                   Max.-Head-Change                         Max.-Flux-Residual
  Residual-Control   Outer-Iter.   Inner-Iter.     Column Row Layer    Maximum-Head-Change  Column Row Layer    Maximum-Flux-Residual          L2-NORM 
          0                 1           3            55    5     1      -0.7552694615E+00      55    5    1        -0.2205149117E-01      0.1544497806E+00
          0                 2           2            54    7     1       0.5990879417E-01      55    6    1         0.2020543058E-02      0.1560814555E-01
          0                 3           2            54    7     1      -0.4919637889E-02      55    4    1         0.2609673635E-03      0.1601195914E-02
          0                 4           2            54    7     1       0.3689514961E-03      55    4    1        -0.2813691969E-04      0.1427670490E-03
          0                 5           1            54    7     1      -0.2481790073E-04      55    4    1         0.2274297803E-05      0.1074999123E-04
          0                 6           1            54    7     1       0.1460999118E-05      52    4    1        -0.1470223951E-06      0.6749784163E-06
          0                 7           1            54    7     1      -0.7313295142E-07      52    4    1         0.7731872032E-08      0.3496008495E-07

    ------------------------------------------------
       NWT REQUIRED            7 OUTER ITERATIONS 
       AND A TOTAL OF         12 INNER ITERATIONS.
    ------------------------------------------------

 NO OUTPUT CONTROL FOR STRESS PERIOD    7   TIME STEP   22
 
 SOLVING FOR HEAD 
                                                   Max.-Head-Change                         Max.-Flux-Residual
  Residual-Control   Outer-Iter.   Inner-Iter.     Column Row Layer    Maximum-Head-Change  Column Row Layer    Maximum-Flux-Residual          L2-NORM 
          0                 1           3            55    5     1      -0.8198127647E+00      55    5    1        -0.2170686832E-01      0.1528063450E+00
          0                 2           2            54    7     1       0.6435912307E-01      55    6    1         0.1992188795E-02      0.1541711616E-01
          0                 3           2            54    7     1      -0.5252730509E-02      55    4    1         0.2600688862E-03      0.1587842988E-02
          0                 4           2            54    7     1       0.3915087839E-03      55    4    1        -0.2826766862E-04      0.1423983188E-03
          0                 5           1            54    7     1      -0.2619797072E-04      55    4    1         0.2300639687E-05      0.1078179181E-04
          0                 6           1            54    7     1       0.1536421482E-05      52    4    1        -0.1492877892E-06      0.6794799687E-06
          0                 7           1            54    7     1      -0.7673938334E-07      52    4    1         0.7889639164E-08      0.3527903513E-07

    ------------------------------------------------
       NWT REQUIRED            7 OUTER ITERATIONS 
       AND A TOTAL OF         12 INNER ITERATIONS.
    ------------------------------------------------

 NO OUTPUT CONTROL FOR STRESS PERIOD    7   TIME STEP   23
 
 SOLVING FOR HEAD 
                                                   Max.-Head-Change                         Max.-Flux-Residual
  Residual-Control   Outer-Iter.   Inner-Iter.     Column Row Layer    Maximum-Head-Change  Column Row Layer    Maximum-Flux-Residual          L2-NORM 
          0                 1           3            55    5     1      -0.8929220721E+00      55    5    1        -0.2141086456E-01      0.1513320185E+00
          0                 2           2            54    7     1       0.6920518029E-01      55    6    1         0.1969588620E-02      0.1524675955E-01
          0                 3           2            54    7     1      -0.5614590788E-02      55    4    1         0.2571150479E-03      0.1576210960E-02
          0                 4           2            54    7     1       0.4158832738E-03      55    4    1        -0.2825994022E-04      0.1421344850E-03
          0                 5           1            54    7     1      -0.2767737940E-04      55    4    1         0.2318951464E-05      0.1081975281E-04
          0                 6           1            54    7     1       0.1616682803E-05      52    4    1        -0.1515998962E-06      0.6842818751E-06
          0                 7           1            54    7     1      -0.8055535085E-07      52    4    1         0.8049341638E-08      0.3561557397E-07

    ------------------------------------------------
       NWT REQUIRED            7 OUTER ITERATIONS 
       AND A TOTAL OF         12 INNER ITERATIONS.
    ------------------------------------------------

 NO OUTPUT CONTROL FOR STRESS PERIOD    7   TIME STEP   24
 
 SOLVING FOR HEAD 
                                                   Max.-Head-Change                         Max.-Flux-Residual
  Residual-Control   Outer-Iter.   Inner-Iter.     Column Row Layer    Maximum-Head-Change  Column Row Layer    Maximum-Flux-Residual          L2-NORM 
          0                 1           3            55    5     1      -0.9730477470E+00      55    5    1        -0.2121558398E-01      0.1499207565E+00
          0                 2           2            54    7     1       0.7444784807E-01      55    6    1         0.1953439926E-02      0.1509303689E-01
          0                 3           2            54    7     1      -0.6005283559E-02      55    4    1         0.2551408974E-03      0.1565949435E-02
          0                 4           2            54    7     1       0.4420697505E-03      55    4    1        -0.2828878730E-04      0.1419297864E-03
          0                 5           1            54    7     1      -0.2925477818E-04      55    4    1         0.2337654746E-05      0.1085913782E-04
          0                 6           1            54    7     1       0.1701725310E-05      52    4    1        -0.1535110181E-06      0.6890122433E-06
          0                 7           1            54    7     1      -0.8457867090E-07      52    4    1         0.8189529055E-08      0.3594802493E-07

    ------------------------------------------------
       NWT REQUIRED            7 OUTER ITERATIONS 
       AND A TOTAL OF         12 INNER ITERATIONS.
    ------------------------------------------------

 NO OUTPUT CONTROL FOR STRESS PERIOD    7   TIME STEP   25
 
 SOLVING FOR HEAD 
                                                   Max.-Head-Change                         Max.-Flux-Residual
  Residual-Control   Outer-Iter.   Inner-Iter.     Column Row Layer    Maximum-Head-Change  Column Row Layer    Maximum-Flux-Residual          L2-NORM 
          0                 1           3            55    5     1      -0.1060897377E+01      55    5    1        -0.2101287066E-01      0.1486372198E+00
          0                 2           2            54    7     1       0.8009477173E-01      55    6    1         0.1941790560E-02      0.1494159667E-01
          0                 3           2            54    7     1      -0.6424764694E-02      55    4    1         0.2526832527E-03      0.1555351796E-02
          0                 4           2            54    7     1       0.4700187976E-03      55    4    1        -0.2825088002E-04      0.1416533136E-03
          0                 5           1            54    7     1      -0.3092429710E-04      55    4    1         0.2350092962E-05      0.1089100779E-04
          0                 6           1            54    7     1       0.1791184467E-05      52    4    1        -0.1550057611E-06      0.6931134400E-06
          0                 7           1            54    7     1      -0.8878943704E-07      52    4    1         0.8308723487E-08      0.3624693141E-07

    ------------------------------------------------
       NWT REQUIRED            7 OUTER ITERATIONS 
       AND A TOTAL OF         12 INNER ITERATIONS.
    ------------------------------------------------

 NO OUTPUT CONTROL FOR STRESS PERIOD    7   TIME STEP   26
 
 SOLVING FOR HEAD 
                                                   Max.-Head-Change                         Max.-Flux-Residual
  Residual-Control   Outer-Iter.   Inner-Iter.     Column Row Layer    Maximum-Head-Change  Column Row Layer    Maximum-Flux-Residual          L2-NORM 
          0                 1           3            55    5     1      -0.1157867578E+01      55    5    1        -0.2084641359E-01      0.1472899088E+00
          0                 2           3            54    7     1       0.8617997947E-01      55    6    1         0.1935073289E-02      0.1479675401E-01
          0                 3           2            54    7     1      -0.6875660481E-02      54    4    1         0.2504992717E-03      0.1545690138E-02
          0                 4           2            54    7     1       0.4999014134E-03      55    4    1        -0.2814309770E-04      0.1414181483E-03
          0                 5           1            54    7     1      -0.3269659491E-04      55    4    1         0.2356122834E-05      0.1092273936E-04
          0                 6           1            54    7     1       0.1886425099E-05      54    4    1        -0.1562625327E-06      0.6970262575E-06
          0                 7           1            54    7     1      -0.9327431259E-07      52    4    1         0.8411421781E-08      0.3654243968E-07

    ------------------------------------------------
       NWT REQUIRED            7 OUTER ITERATIONS 
       AND A TOTAL OF         13 INNER ITERATIONS.
    ------------------------------------------------

 NO OUTPUT CONTROL FOR STRESS PERIOD    7   TIME STEP   27
 
 SOLVING FOR HEAD 
                                                   Max.-Head-Change                         Max.-Flux-Residual
  Residual-Control   Outer-Iter.   Inner-Iter.     Column Row Layer    Maximum-Head-Change  Column Row Layer    Maximum-Flux-Residual          L2-NORM 
          0                 1           3            55    5     1      -0.1264883386E+01      55    5    1        -0.2067999591E-01      0.1458178709E+00
          0                 2           3            54    7     1       0.9274371633E-01      55    6    1         0.1934682896E-02      0.1465618536E-01
          0                 3           2            54    7     1      -0.7360841515E-02      54    4    1         0.2480970672E-03      0.1536033425E-02
          0                 4           2            54    7     1       0.5319105657E-03      54    4    1        -0.2796365811E-04      0.1411115973E-03
          0                 5           1            54    7     1      -0.3458287316E-04      55    4    1         0.2354323175E-05      0.1094505338E-04
          0                 6           1            54    7     1       0.1987713549E-05      54    4    1        -0.1572728667E-06      0.6999894512E-06
          0                 7           1            54    7     1      -0.9802227869E-07      52    4    1         0.8495219639E-08      0.3678907543E-07

    ------------------------------------------------
       NWT REQUIRED            7 OUTER ITERATIONS 
       AND A TOTAL OF         13 INNER ITERATIONS.
    ------------------------------------------------

 NO OUTPUT CONTROL FOR STRESS PERIOD    7   TIME STEP   28
 
 SOLVING FOR HEAD 
                                                   Max.-Head-Change                         Max.-Flux-Residual
  Residual-Control   Outer-Iter.   Inner-Iter.     Column Row Layer    Maximum-Head-Change  Column Row Layer    Maximum-Flux-Residual          L2-NORM 
          0                 1           3            55    5     1      -0.1383713037E+01      55    5    1        -0.2054643619E-01      0.1443479901E+00
          0                 2           3            54    7     1       0.9983815503E-01      55    6    1         0.1942562245E-02      0.1450682968E-01
          0                 3           2            54    7     1      -0.7884483227E-02      54    4    1         0.2454938290E-03      0.1524724712E-02
          0                 4           2            54    7     1       0.5663362239E-03      54    4    1        -0.2782241608E-04      0.1405979287E-03
          0                 5           1            54    7     1      -0.3660172277E-04      54    4    1         0.2352335513E-05      0.1094799714E-04
          0                 6           1            54    7     1       0.2096578105E-05      54    4    1        -0.1579601134E-06      0.7015274859E-06
          0                 7           1            54    7     1      -0.1031049689E-06      54    4    1         0.8566884979E-08      0.3696919999E-07

    ------------------------------------------------
       NWT REQUIRED            7 OUTER ITERATIONS 
       AND A TOTAL OF         13 INNER ITERATIONS.
    ------------------------------------------------

 NO OUTPUT CONTROL FOR STRESS PERIOD    7   TIME STEP   29
 
 SOLVING FOR HEAD 
                                                   Max.-Head-Change                         Max.-Flux-Residual
  Residual-Control   Outer-Iter.   Inner-Iter.     Column Row Layer    Maximum-Head-Change  Column Row Layer    Maximum-Flux-Residual          L2-NORM 
          0                 1           3            55    5     1      -0.1516264608E+01      55    5    1        -0.2044550116E-01      0.1428519376E+00
          0                 2           3            55    5     1       0.1081111063E+00      55    6    1         0.1961820322E-02      0.1436387621E-01
          0                 3           2            54    7     1      -0.8451328536E-02      54    4    1         0.2427148801E-03      0.1514453786E-02
          0                 4           2            54    7     1       0.6035184399E-03      54    4    1        -0.2764652595E-04      0.1401468406E-03
          0                 5           1            54    7     1      -0.3877564402E-04      54    4    1         0.2348366885E-05      0.1095064767E-04
          0                 6           1            54    7     1       0.2214764865E-05      54    4    1        -0.1583442968E-06      0.7026017270E-06
          0                 7           1            54    7     1      -0.1085793201E-06      54    4    1         0.8630053117E-08      0.3712634549E-07

    ------------------------------------------------
       NWT REQUIRED            7 OUTER ITERATIONS 
       AND A TOTAL OF         13 INNER ITERATIONS.
    ------------------------------------------------

 NO OUTPUT CONTROL FOR STRESS PERIOD    7   TIME STEP   30



 STREAM LISTING     PERIOD      7   STEP       30

 LAYER ROW COL. STREAM  RCH.   FLOW INTO    STREAM     FLOW OUT OF   OVRLND.    DIRECT     STREAM      STREAM      STREAM     STREAM  STREAMBED   FLOW TO   CHNG. UNSAT. 
                SEG.NO.  NO.   STRM. RCH.    LOSS       STRM. RCH.   RUNOFF     PRECIP       ET         HEAD        DEPTH      WIDTH  CONDCTNC.   WAT. TAB.

   1    4    1     1     1    4.4070E+01  1.0651E-02   4.4059E+01  0.000E+00  0.000E+00  0.000E+00  1.44496E+02  4.646E+00  1.039E+01  2.070E-03  1.084E-02 -1.903E-04
   1    4    2     1     2    4.4059E+01  1.0649E-02   4.4049E+01  0.000E+00  0.000E+00  0.000E+00  1.44195E+02  4.645E+00  1.039E+01  2.070E-03  1.084E-02 -1.893E-04
   1    4    3     1     3    4.4049E+01  1.0647E-02   4.4038E+01  0.000E+00  0.000E+00  0.000E+00  1.43895E+02  4.645E+00  1.039E+01  2.069E-03  1.083E-02 -1.874E-04
   1    4    4     1     4    4.4038E+01  1.0645E-02   4.4027E+01  0.000E+00  0.000E+00  0.000E+00  1.43594E+02  4.644E+00  1.038E+01  2.069E-03  1.083E-02 -1.846E-04
   1    4    5     1     5    4.4027E+01  1.0643E-02   4.4017E+01  0.000E+00  0.000E+00  0.000E+00  1.43294E+02  4.644E+00  1.038E+01  2.069E-03  1.082E-02 -1.811E-04
   1    4    6     1     6    4.4017E+01  1.0641E-02   4.4006E+01  0.000E+00  0.000E+00  0.000E+00  1.42993E+02  4.643E+00  1.038E+01  2.069E-03  1.082E-02 -1.768E-04
   1    4    7     1     7    4.4006E+01  1.0639E-02   4.3995E+01  0.000E+00  0.000E+00  0.000E+00  1.42693E+02  4.643E+00  1.038E+01  2.069E-03  1.081E-02 -1.718E-04
   1    4    8     1     8    4.3995E+01  1.0637E-02   4.3985E+01  0.000E+00  0.000E+00  0.000E+00  1.42393E+02  4.643E+00  1.038E+01  2.068E-03  1.080E-02 -1.661E-04
   1    4    9     1     9    4.3985E+01  1.0635E-02   4.3974E+01  0.000E+00  0.000E+00  0.000E+00  1.42092E+02  4.642E+00  1.038E+01  2.068E-03  1.079E-02 -1.596E-04
   1    4   10     1    10    4.3974E+01  1.0633E-02   4.3964E+01  0.000E+00  0.000E+00  0.000E+00  1.41792E+02  4.642E+00  1.038E+01  2.068E-03  1.079E-02 -1.523E-04
   1    4   11     1    11    4.3964E+01  1.0631E-02   4.3953E+01  0.000E+00  0.000E+00  0.000E+00  1.41491E+02  4.641E+00  1.038E+01  2.068E-03  1.078E-02 -1.444E-04
   1    4   12     1    12    4.3953E+01  1.0630E-02   4.3942E+01  0.000E+00  0.000E+00  0.000E+00  1.41191E+02  4.641E+00  1.038E+01  2.068E-03  1.077E-02 -1.357E-04
   1    4   13     1    13    4.3942E+01  1.0628E-02   4.3932E+01  0.000E+00  0.000E+00  0.000E+00  1.40890E+02  4.640E+00  1.037E+01  2.067E-03  1.075E-02 -1.263E-04
   1    4   14     1    14    4.3932E+01  1.0626E-02   4.3921E+01  0.000E+00  0.000E+00  0.000E+00  1.40590E+02  4.640E+00  1.037E+01  2.067E-03  1.074E-02 -1.163E-04
   1    4   15     1    15    4.3921E+01  1.0624E-02   4.3910E+01  0.000E+00  0.000E+00  0.000E+00  1.40290E+02  4.640E+00  1.037E+01  2.067E-03  1.073E-02 -1.057E-04
   1    4   16     1    16    4.3910E+01  1.0622E-02   4.3900E+01  0.000E+00  0.000E+00  0.000E+00  1.39989E+02  4.639E+00  1.037E+01  2.067E-03  1.072E-02 -9.442E-05
   1    4   17     1    17    4.3900E+01  1.0620E-02   4.3889E+01  0.000E+00  0.000E+00  0.000E+00  1.39689E+02  4.639E+00  1.037E+01  2.067E-03  1.070E-02 -8.261E-05
   1    4   18     1    18    4.3889E+01  1.0618E-02   4.3879E+01  0.000E+00  0.000E+00  0.000E+00  1.39388E+02  4.638E+00  1.037E+01  2.066E-03  1.069E-02 -7.027E-05
   1    4   19     1    19    4.3879E+01  1.0616E-02   4.3868E+01  0.000E+00  0.000E+00  0.000E+00  1.39088E+02  4.638E+00  1.037E+01  2.066E-03  1.067E-02 -5.743E-05
   1    4   20     1    20    4.3868E+01  1.0614E-02   4.3857E+01  0.000E+00  0.000E+00  0.000E+00  1.38787E+02  4.637E+00  1.037E+01  2.066E-03  1.066E-02 -4.413E-05
   1    4   21     1    21    4.3857E+01  1.0612E-02   4.3847E+01  0.000E+00  0.000E+00  0.000E+00  1.38487E+02  4.637E+00  1.037E+01  2.066E-03  1.064E-02 -3.040E-05
   1    4   22     1    22    4.3847E+01  1.0610E-02   4.3836E+01  0.000E+00  0.000E+00  0.000E+00  1.38187E+02  4.637E+00  1.036E+01  2.066E-03  1.063E-02 -1.626E-05
   1    4   23     1    23    4.3836E+01  1.0608E-02   4.3826E+01  0.000E+00  0.000E+00  0.000E+00  1.37886E+02  4.636E+00  1.036E+01  2.065E-03  1.061E-02 -1.727E-06
   1    4   24     1    24    4.3826E+01  1.0607E-02   4.3815E+01  0.000E+00  0.000E+00  0.000E+00  1.37586E+02  4.636E+00  1.036E+01  2.065E-03  1.059E-02  1.320E-05
   1    4   25     1    25    4.3815E+01  1.0605E-02   4.3804E+01  0.000E+00  0.000E+00  0.000E+00  1.37285E+02  4.635E+00  1.036E+01  2.065E-03  1.058E-02  2.855E-05
   1    4   26     1    26    4.3804E+01  1.0603E-02   4.3794E+01  0.000E+00  0.000E+00  0.000E+00  1.36985E+02  4.635E+00  1.036E+01  2.065E-03  1.056E-02  4.435E-05
   1    4   27     1    27    4.3794E+01  1.0601E-02   4.3783E+01  0.000E+00  0.000E+00  0.000E+00  1.36684E+02  4.634E+00  1.036E+01  2.065E-03  1.054E-02  6.068E-05
   1    4   28     1    28    4.3783E+01  1.0599E-02   4.3773E+01  0.000E+00  0.000E+00  0.000E+00  1.36384E+02  4.634E+00  1.036E+01  2.064E-03  1.052E-02  7.765E-05
   1    4   29     1    29    4.3773E+01  1.0597E-02   4.3762E+01  0.000E+00  0.000E+00  0.000E+00  1.36084E+02  4.634E+00  1.036E+01  2.064E-03  1.050E-02  9.544E-05
   1    4   30     1    30    4.3762E+01  1.0595E-02   4.3751E+01  0.000E+00  0.000E+00  0.000E+00  1.35783E+02  4.633E+00  1.036E+01  2.064E-03  1.048E-02  1.143E-04
   1    4   31     1    31    4.3751E+01  1.0593E-02   4.3741E+01  0.000E+00  0.000E+00  0.000E+00  1.35483E+02  4.633E+00  1.035E+01  2.064E-03  1.046E-02  1.346E-04
   1    4   32     1    32    4.3741E+01  1.0591E-02   4.3730E+01  0.000E+00  0.000E+00  0.000E+00  1.35182E+02  4.632E+00  1.035E+01  2.064E-03  1.043E-02  1.567E-04
   1    4   33     1    33    4.3730E+01  1.0589E-02   4.3720E+01  0.000E+00  0.000E+00  0.000E+00  1.34882E+02  4.632E+00  1.035E+01  2.063E-03  1.041E-02  1.811E-04
   1    4   34     1    34    4.3720E+01  1.0587E-02   4.3709E+01  0.000E+00  0.000E+00  0.000E+00  1.34581E+02  4.631E+00  1.035E+01  2.063E-03  1.038E-02  2.085E-04
   1    4   35     1    35    4.3709E+01  1.0586E-02   4.3698E+01  0.000E+00  0.000E+00  0.000E+00  1.34281E+02  4.631E+00  1.035E+01  2.063E-03  1.035E-02  2.375E-04
   1    4   36     1    36    4.3698E+01  1.0584E-02   4.3688E+01  0.000E+00  0.000E+00  0.000E+00  1.33981E+02  4.631E+00  1.035E+01  2.063E-03  1.031E-02  2.702E-04
   1    4   37     1    37    4.3688E+01  1.0582E-02   4.3677E+01  0.000E+00  0.000E+00  0.000E+00  1.33680E+02  4.630E+00  1.035E+01  2.063E-03  1.014E-02  4.442E-04
   1    4   38     1    38    4.3677E+01  1.0580E-02   4.3667E+01  0.000E+00  0.000E+00  0.000E+00  1.33380E+02  4.630E+00  1.035E+01  2.062E-03  9.328E-03  1.252E-03
   1    4   39     1    39    4.3667E+01  1.0578E-02   4.3656E+01  0.000E+00  0.000E+00  0.000E+00  1.33079E+02  4.629E+00  1.034E+01  2.062E-03  8.577E-03  2.000E-03
   1    4   40     1    40    4.3656E+01  1.0576E-02   4.3645E+01  0.000E+00  0.000E+00  0.000E+00  1.32779E+02  4.629E+00  1.034E+01  2.062E-03  8.519E-03  2.057E-03
   1    4   41     1    41    4.3645E+01  1.0574E-02   4.3635E+01  0.000E+00  0.000E+00  0.000E+00  1.32478E+02  4.628E+00  1.034E+01  2.062E-03  8.453E-03  2.122E-03
   1    4   42     1    42    4.3635E+01  1.0572E-02   4.3624E+01  0.000E+00  0.000E+00  0.000E+00  1.32178E+02  4.628E+00  1.034E+01  2.062E-03  8.376E-03  2.196E-03
   1    4   43     1    43    4.3624E+01  1.0570E-02   4.3614E+01  0.000E+00  0.000E+00  0.000E+00  1.31878E+02  4.628E+00  1.034E+01  2.061E-03  8.288E-03  2.282E-03
   1    4   44     1    44    4.3614E+01  1.0568E-02   4.3603E+01  0.000E+00  0.000E+00  0.000E+00  1.31577E+02  4.627E+00  1.034E+01  2.061E-03  8.186E-03  2.382E-03
   1    4   45     1    45    4.3603E+01  1.0566E-02   4.3593E+01  0.000E+00  0.000E+00  0.000E+00  1.31277E+02  4.627E+00  1.034E+01  2.061E-03  8.068E-03  2.498E-03
   1    4   46     1    46    4.3593E+01  1.0565E-02   4.3582E+01  0.000E+00  0.000E+00  0.000E+00  1.30976E+02  4.626E+00  1.034E+01  2.061E-03  7.931E-03  2.633E-03
   1    4   47     1    47    4.3582E+01  1.0563E-02   4.3572E+01  0.000E+00  0.000E+00  0.000E+00  1.30676E+02  4.626E+00  1.034E+01  2.061E-03  7.770E-03  2.793E-03
   1    4   48     1    48    4.3572E+01  1.0561E-02   4.3561E+01  0.000E+00  0.000E+00  0.000E+00  1.30375E+02  4.625E+00  1.033E+01  2.060E-03  7.573E-03  2.988E-03
   1    4   49     1    49    4.3561E+01  1.0559E-02   4.3550E+01  0.000E+00  0.000E+00  0.000E+00  1.30075E+02  4.625E+00  1.033E+01  2.060E-03  7.310E-03  3.249E-03
   1    4   50     1    50    4.3550E+01  1.0557E-02   4.3540E+01  0.000E+00  0.000E+00  0.000E+00  1.29775E+02  4.625E+00  1.033E+01  2.060E-03  6.901E-03  3.656E-03
   1    4   51     1    51    4.3540E+01  1.0555E-02   4.3529E+01  0.000E+00  0.000E+00  0.000E+00  1.29474E+02  4.624E+00  1.033E+01  2.060E-03  6.988E-03  3.567E-03
   1    4   52     1    52    4.3529E+01  1.0553E-02   4.3519E+01  0.000E+00  0.000E+00  0.000E+00  1.29174E+02  4.624E+00  1.033E+01  2.060E-03  7.010E-03  3.543E-03
   1    4   53     1    53    4.3519E+01  1.0551E-02   4.3508E+01  0.000E+00  0.000E+00  0.000E+00  1.28873E+02  4.623E+00  1.033E+01  2.059E-03  7.003E-03  3.549E-03
   1    4   54     1    54    4.3508E+01  1.0549E-02   4.3498E+01  0.000E+00  0.000E+00  0.000E+00  1.28573E+02  4.623E+00  1.033E+01  2.059E-03  6.964E-03  3.586E-03
   1    4   55     1    55    4.3498E+01  1.0547E-02   4.3487E+01  0.000E+00  0.000E+00  0.000E+00  1.28272E+02  4.622E+00  1.033E+01  2.059E-03  6.855E-03  3.692E-03
   1    4   56     1    56    4.3487E+01  1.0545E-02   4.3477E+01  0.000E+00  0.000E+00  0.000E+00  1.27972E+02  4.622E+00  1.033E+01  2.059E-03  7.264E-03  3.281E-03
   1    4   57     1    57    4.3477E+01  1.0544E-02   4.3466E+01  0.000E+00  0.000E+00  0.000E+00  1.27672E+02  4.622E+00  1.032E+01  2.059E-03  7.523E-03  3.020E-03
   1    4   58     1    58    4.3466E+01  1.0542E-02   4.3455E+01  0.000E+00  0.000E+00  0.000E+00  1.27371E+02  4.621E+00  1.032E+01  2.058E-03  7.715E-03  2.826E-03
   1    4   59     1    59    4.3455E+01  1.0540E-02   4.3445E+01  0.000E+00  0.000E+00  0.000E+00  1.27071E+02  4.621E+00  1.032E+01  2.058E-03  7.871E-03  2.668E-03
   1    4   60     1    60    4.3445E+01  1.0538E-02   4.3434E+01  0.000E+00  0.000E+00  0.000E+00  1.26770E+02  4.620E+00  1.032E+01  2.058E-03  8.003E-03  2.535E-03
   1    4   61     1    61    4.3434E+01  1.0536E-02   4.3424E+01  0.000E+00  0.000E+00  0.000E+00  1.26470E+02  4.620E+00  1.032E+01  2.058E-03  8.116E-03  2.420E-03
   1    4   62     1    62    4.3424E+01  1.0534E-02   4.3413E+01  0.000E+00  0.000E+00  0.000E+00  1.26169E+02  4.619E+00  1.032E+01  2.058E-03  8.213E-03  2.321E-03
   1    4   63     1    63    4.3413E+01  1.0532E-02   4.3403E+01  0.000E+00  0.000E+00  0.000E+00  1.25869E+02  4.619E+00  1.032E+01  2.057E-03  8.298E-03  2.234E-03
   1    4   64     1    64    4.3403E+01  1.0530E-02   4.3392E+01  0.000E+00  0.000E+00  0.000E+00  1.25569E+02  4.619E+00  1.032E+01  2.057E-03  8.594E-03  1.936E-03
   1    4   65     1    65    4.3392E+01  1.0528E-02   4.3382E+01  0.000E+00  0.000E+00  0.000E+00  1.25268E+02  4.618E+00  1.032E+01  2.057E-03  9.881E-03  6.469E-04
   1    4   66     1    66    4.3382E+01  1.0526E-02   4.3371E+01  0.000E+00  0.000E+00  0.000E+00  1.24968E+02  4.618E+00  1.031E+01  2.057E-03  9.981E-03  5.455E-04
   1    4   67     1    67    4.3371E+01  1.0524E-02   4.3361E+01  0.000E+00  0.000E+00  0.000E+00  1.24667E+02  4.617E+00  1.031E+01  2.057E-03  1.003E-02  4.970E-04
   1    4   68     1    68    4.3361E+01  1.0523E-02   4.3350E+01  0.000E+00  0.000E+00  0.000E+00  1.24367E+02  4.617E+00  1.031E+01  2.056E-03  1.007E-02  4.552E-04
   1    4   69     1    69    4.3350E+01  1.0521E-02   4.3340E+01  0.000E+00  0.000E+00  0.000E+00  1.24066E+02  4.616E+00  1.031E+01  2.056E-03  1.010E-02  4.205E-04
   1    4   70     1    70    4.3340E+01  1.0519E-02   4.3329E+01  0.000E+00  0.000E+00  0.000E+00  1.23766E+02  4.616E+00  1.031E+01  2.056E-03  1.013E-02  3.918E-04
   1    4   71     1    71    4.3329E+01  1.0517E-02   4.3319E+01  0.000E+00  0.000E+00  0.000E+00  1.23466E+02  4.616E+00  1.031E+01  2.056E-03  1.015E-02  3.681E-04
   1    4   72     1    72    4.3319E+01  1.0515E-02   4.3308E+01  0.000E+00  0.000E+00  0.000E+00  1.23165E+02  4.615E+00  1.031E+01  2.056E-03  1.017E-02  3.481E-04
   1    4   73     1    73    4.3308E+01  1.0513E-02   4.3298E+01  0.000E+00  0.000E+00  0.000E+00  1.22865E+02  4.615E+00  1.031E+01  2.055E-03  1.018E-02  3.311E-04
   1    4   74     1    74    4.3298E+01  1.0511E-02   4.3287E+01  0.000E+00  0.000E+00  0.000E+00  1.22564E+02  4.614E+00  1.030E+01  2.055E-03  1.019E-02  3.162E-04
   1    4   75     1    75    4.3287E+01  1.0509E-02   4.3277E+01  0.000E+00  0.000E+00  0.000E+00  1.22264E+02  4.614E+00  1.030E+01  2.055E-03  1.021E-02  3.029E-04
   1    4   76     1    76    4.3277E+01  1.0507E-02   4.3266E+01  0.000E+00  0.000E+00  0.000E+00  1.21963E+02  4.613E+00  1.030E+01  2.055E-03  1.022E-02  2.906E-04
   1    4   77     1    77    4.3266E+01  1.0505E-02   4.3256E+01  0.000E+00  0.000E+00  0.000E+00  1.21663E+02  4.613E+00  1.030E+01  2.055E-03  1.023E-02  2.790E-04
   1    4   78     1    78    4.3256E+01  1.0504E-02   4.3245E+01  0.000E+00  0.000E+00  0.000E+00  1.21363E+02  4.613E+00  1.030E+01  2.054E-03  1.024E-02  2.676E-04
   1    4   79     1    79    4.3245E+01  1.0502E-02   4.3235E+01  0.000E+00  0.000E+00  0.000E+00  1.21062E+02  4.612E+00  1.030E+01  2.054E-03  1.025E-02  2.564E-04
   1    4   80     1    80    4.3235E+01  1.0500E-02   4.3224E+01  0.000E+00  0.000E+00  0.000E+00  1.20762E+02  4.612E+00  1.030E+01  2.054E-03  1.025E-02  2.452E-04
   1    4   81     1    81    4.3224E+01  1.0498E-02   4.3214E+01  0.000E+00  0.000E+00  0.000E+00  1.20461E+02  4.611E+00  1.030E+01  2.054E-03  1.026E-02  2.337E-04
   1    4   82     1    82    4.3214E+01  1.0496E-02   4.3203E+01  0.000E+00  0.000E+00  0.000E+00  1.20161E+02  4.611E+00  1.030E+01  2.054E-03  1.027E-02  2.220E-04
   1    4   83     1    83    4.3203E+01  1.0494E-02   4.3193E+01  0.000E+00  0.000E+00  0.000E+00  1.19860E+02  4.610E+00  1.029E+01  2.053E-03  1.028E-02  2.100E-04
   1    4   84     1    84    4.3193E+01  1.0492E-02   4.3182E+01  0.000E+00  0.000E+00  0.000E+00  1.19560E+02  4.610E+00  1.029E+01  2.053E-03  1.029E-02  1.976E-04
   1    4   85     1    85    4.3182E+01  1.0490E-02   4.3172E+01  0.000E+00  0.000E+00  0.000E+00  1.19260E+02  4.610E+00  1.029E+01  2.053E-03  1.031E-02  1.849E-04
   1    4   86     1    86    4.3172E+01  1.0488E-02   4.3161E+01  0.000E+00  0.000E+00  0.000E+00  1.18959E+02  4.609E+00  1.029E+01  2.053E-03  1.032E-02  1.718E-04
   1    4   87     1    87    4.3161E+01  1.0486E-02   4.3151E+01  0.000E+00  0.000E+00  0.000E+00  1.18659E+02  4.609E+00  1.029E+01  2.053E-03  1.033E-02  1.584E-04
   1    4   88     1    88    4.3151E+01  1.0484E-02   4.3140E+01  0.000E+00  0.000E+00  0.000E+00  1.18358E+02  4.608E+00  1.029E+01  2.052E-03  1.034E-02  1.446E-04
   1    4   89     1    89    4.3140E+01  1.0483E-02   4.3130E+01  0.000E+00  0.000E+00  0.000E+00  1.18058E+02  4.608E+00  1.029E+01  2.052E-03  1.035E-02  1.307E-04
   1    4   90     1    90    4.3130E+01  1.0481E-02   4.3119E+01  0.000E+00  0.000E+00  0.000E+00  1.17757E+02  4.607E+00  1.029E+01  2.052E-03  1.036E-02  1.165E-04
   1    4   91     1    91    4.3119E+01  1.0479E-02   4.3109E+01  0.000E+00  0.000E+00  0.000E+00  1.17457E+02  4.607E+00  1.029E+01  2.052E-03  1.038E-02  1.021E-04
   1    4   92     1    92    4.3109E+01  1.0477E-02   4.3098E+01  0.000E+00  0.000E+00  0.000E+00  1.17157E+02  4.607E+00  1.028E+01  2.052E-03  1.039E-02  8.778E-05
   1    4   93     1    93    4.3098E+01  1.0475E-02   4.3088E+01  0.000E+00  0.000E+00  0.000E+00  1.16856E+02  4.606E+00  1.028E+01  2.051E-03  1.040E-02  7.346E-05
   1    4   94     1    94    4.3088E+01  1.0473E-02   4.3077E+01  0.000E+00  0.000E+00  0.000E+00  1.16556E+02  4.606E+00  1.028E+01  2.051E-03  1.041E-02  5.936E-05
   1    4   95     1    95    4.3077E+01  1.0471E-02   4.3067E+01  0.000E+00  0.000E+00  0.000E+00  1.16255E+02  4.605E+00  1.028E+01  2.051E-03  1.043E-02  4.567E-05
   1    4   96     1    96    4.3067E+01  1.0469E-02   4.3056E+01  0.000E+00  0.000E+00  0.000E+00  1.15955E+02  4.605E+00  1.028E+01  2.051E-03  1.044E-02  3.272E-05
   1    4   97     1    97    4.3056E+01  1.0467E-02   4.3046E+01  0.000E+00  0.000E+00  0.000E+00  1.15654E+02  4.604E+00  1.028E+01  2.051E-03  1.045E-02  2.094E-05
   1    4   98     1    98    4.3046E+01  1.0466E-02   4.3035E+01  0.000E+00  0.000E+00  0.000E+00  1.15354E+02  4.604E+00  1.028E+01  2.050E-03  1.045E-02  1.098E-05
   1    4   99     1    99    4.3035E+01  1.0464E-02   4.3025E+01  0.000E+00  0.000E+00  0.000E+00  1.15054E+02  4.604E+00  1.028E+01  2.050E-03  1.046E-02  3.601E-06
   1    4  100     1   100    4.3025E+01  1.0462E-02   4.3014E+01  0.000E+00  0.000E+00  0.000E+00  1.14753E+02  4.603E+00  1.028E+01  2.050E-03  0.000E+00  0.000E+00



1
  VOLUMETRIC BUDGET FOR UNSATURATED ZONE BENEATH STREAMS AT END OF TIME STEP    30 STRESS PERIOD   7
  ------------------------------------------------------------------------------------------------

    CUMULATIVE VOLUMES             L**3    RATES FOR THIS TIME STEP         L**3/T
    ------------------                     ------------------------


          STREAM LOSS =      8309457.5000            STREAM LOSS =            1.0556
    CHANGE IN STORAGE =      2037491.8750      CHANGE IN STORAGE =        8.0736E-02
       RECHARGE TO GW =      6274880.0000         RECHARGE TO GW =            0.9749

             TOTAL IN =      8309457.5000               TOTAL IN =            1.0556

            TOTAL OUT =      8312372.0000              TOTAL OUT =            1.0556

             IN - OUT =        -2914.5000               IN - OUT =        1.1921E-07

  PERCENT DISCREPANCY =           -0.01      PERCENT DISCREPANCY =             0.00



1
  VOLUMETRIC BUDGET FOR ENTIRE MODEL AT END OF TIME STEP   30, STRESS PERIOD   7
  ------------------------------------------------------------------------------

     CUMULATIVE VOLUMES      L**3       RATES FOR THIS TIME STEP      L**3/T
     ------------------                 ------------------------

           IN:                                      IN:
           ---                                      ---
             STORAGE     =    42331332.0000               STORAGE     =           2.1329
       CONSTANT HEAD     =           0.0000         CONSTANT HEAD     =           0.0000
               WELLS     =           0.0000                 WELLS     =           0.0000
     HEAD DEP BOUNDS     =           0.0000       HEAD DEP BOUNDS     =           0.0000
      STREAM LEAKAGE     =     6274873.0000        STREAM LEAKAGE     =           0.9749

                TOTAL IN =    48606204.0000                  TOTAL IN =           3.1078

          OUT:                                     OUT:
          ----                                     ----
             STORAGE     =     1071564.5000               STORAGE     =           0.1205
       CONSTANT HEAD     =           0.0000         CONSTANT HEAD     =           0.0000
               WELLS     =    37687680.0000                 WELLS     =           2.6600
     HEAD DEP BOUNDS     =     9846957.0000       HEAD DEP BOUNDS     =           0.3273
      STREAM LEAKAGE     =           0.0000        STREAM LEAKAGE     =           0.0000

               TOTAL OUT =    48606200.0000                 TOTAL OUT =           3.1078

                IN - OUT =           4.0000                  IN - OUT =           0.0000

     PERCENT DISCREPANCY =           0.00         PERCENT DISCREPANCY =           0.00






         TIME SUMMARY AT END OF TIME STEP   30 IN STRESS PERIOD    7
                    SECONDS     MINUTES      HOURS       DAYS        YEARS
                    -----------------------------------------------------------
   TIME STEP LENGTH 2.49961E+05  4166.0      69.434      2.8931     7.92080E-03
 STRESS PERIOD TIME 2.59200E+06  43200.      720.00      30.000     8.21355E-02
         TOTAL TIME 1.81440E+07 3.02400E+05  5040.0      210.00     0.57495    
1
1
                            STRESS PERIOD NO.    8, LENGTH =   2592000.    
                            -----------------------------------------------

                              NUMBER OF TIME STEPS =    30

                               MULTIPLIER FOR DELT =     1.100

                            INITIAL TIME STEP SIZE =   15757.40    

 REUSING NON-PARAMETER WELLS FROM LAST STRESS PERIOD

      1 WELL 

 REUSING NON-PARAMETER GHB CELLS FROM LAST STRESS PERIOD

      7 GHB CELLS



 CLASSIFICATION & COUNT OF STREAM SEGMENTS BASED ON SOURCE OF INFLOW:

                HEADWATER     DIVERSION     RECEIVES TRIBUTARY FLOW
                ---------     ---------     -----------------------
                     1              0               0



                    INPUT DATA FOR EACH STREAM SEGMENT
 ---------------------------------------------------------------------------------------------

 SEGMENT    SEG.     INFLOW   OVERLAND   STREAM    STREAM   ICALC  OUTFLOW  DIVERSION PRIORITY
    NO.    LENGTH     RATE     RUNOFF      ET       PPT.    METH.  TO SEG.  FROM SEG.    NO.

      1  2.000E+04 3.391E+01 0.000E+00 0.000E+00 0.000E+00    2        0        0        0


         STREAMBED PROPERTIES AND STREAM DIMENSIONS

 SEGMENT     BED HYD. COND.      BED THICKNESS     ELEV.-TOP OF BED     WIDTH OF STREAM     DEPTH OF STREAM    STREAM ROUGHNESS
    No.     UPPER     LOWER     UPPER     LOWER     UPPER     LOWER     UPPER     LOWER     UPPER     LOWER   CHANNEL      BANK

     1  3.500E-07 3.500E-07                                                                                 3.000E-02 4.000E-02

  EIGHT POINT CROSS-SECTION DATA FOR SEGMENTS WITH ICALC = 2
    X VALUES X VALUES START FROM LEFT SIDE LOOKING DOWNSTREAM

     SEGMENT NO.        X1        X2        X3        X4        X5        X6        X7        X8
            1      0.000E+00 2.000E+00 4.000E+00 6.000E+00 8.000E+00 1.000E+01 1.200E+01 1.400E+01

    Z VALUES ARE RELATIVE TO STREAMBED ELEVATION

     SEGMENT NO.          Z1        Z2        Z3        Z4        Z5        Z6        Z7        Z8
            1      6.000E+00 4.500E+00 3.500E+00 0.000E+00 3.000E-01 3.500E+00 4.500E+00 6.000E+00



 
 SOLVING FOR HEAD 
                                                   Max.-Head-Change                         Max.-Flux-Residual
  Residual-Control   Outer-Iter.   Inner-Iter.     Column Row Layer    Maximum-Head-Change  Column Row Layer    Maximum-Flux-Residual          L2-NORM 
          0                 1           2            55    5     1      -0.5731593236E+00      55    5    1        -0.1804137655E+00      0.2900020283E+00
          0                 2           2            55    5     1       0.5158482237E-01      55    5    1         0.1773251156E-01      0.2926172992E-01
          0                 3           2            55    5     1      -0.4583583193E-02      55    5    1        -0.1597264229E-02      0.2645713350E-02
          0                 4           2            55    5     1       0.3638215511E-03      55    5    1         0.1279313166E-03      0.2119243635E-03
          0                 5           1            55    5     1      -0.2534365613E-04      55    5    1        -0.8993436812E-05      0.1489838102E-04
          0                 6           1            55    5     1       0.1521817149E-05      55    5    1         0.5449665412E-06      0.9027811250E-06
          0                 7           1            55    5     1      -0.7689541206E-07      55    5    1        -0.2778789132E-07      0.4603284567E-07

    ------------------------------------------------
       NWT REQUIRED            7 OUTER ITERATIONS 
       AND A TOTAL OF         11 INNER ITERATIONS.
    ------------------------------------------------

 NO OUTPUT CONTROL FOR STRESS PERIOD    8   TIME STEP    1
 
 SOLVING FOR HEAD 
                                                   Max.-Head-Change                         Max.-Flux-Residual
  Residual-Control   Outer-Iter.   Inner-Iter.     Column Row Layer    Maximum-Head-Change  Column Row Layer    Maximum-Flux-Residual          L2-NORM 
          0                 1           2            55    5     1      -0.4527828828E+00      55    5    1        -0.1201692844E+00      0.2290714985E+00
          0                 2           2            55    5     1       0.3879833444E-01      55    5    1         0.1178931359E-01      0.2298090710E-01
          0                 3           2            55    5     1      -0.3422311219E-02      55    5    1        -0.1062033697E-02      0.2089711446E-02
          0                 4           2            55    5     1       0.2716256621E-03      55    5    1         0.8506223959E-04      0.1674319056E-03
          0                 5           1            55    5     1      -0.1892106602E-04      55    5    1        -0.5979834956E-05      0.1177084507E-04
          0                 6           1            55    5     1       0.1136168463E-05      55    5    1         0.3623545939E-06      0.7132621730E-06
          0                 7           1            55    5     1      -0.5740889122E-07      55    5    1        -0.1847648212E-07      0.3636926548E-07

    ------------------------------------------------
       NWT REQUIRED            7 OUTER ITERATIONS 
       AND A TOTAL OF         11 INNER ITERATIONS.
    ------------------------------------------------

 NO OUTPUT CONTROL FOR STRESS PERIOD    8   TIME STEP    2
 
 SOLVING FOR HEAD 
                                                   Max.-Head-Change                         Max.-Flux-Residual
  Residual-Control   Outer-Iter.   Inner-Iter.     Column Row Layer    Maximum-Head-Change  Column Row Layer    Maximum-Flux-Residual          L2-NORM 
          0                 1           2            55    5     1      -0.3835994644E+00      55    5    1        -0.8653186030E-01      0.2036180306E+00
          0                 2           2            55    5     1       0.3174314786E-01      55    5    1         0.8491952946E-02      0.2037671357E-01
          0                 3           2            55    5     1      -0.2773702983E-02      55    5    1        -0.7649698097E-03      0.1864844088E-02
          0                 4           2            55    5     1       0.2200304143E-03      55    5    1         0.6126997525E-04      0.1495184521E-03
          0                 5           1            55    5     1      -0.1532738829E-04      55    5    1        -0.4307245508E-05      0.1051168703E-04
          0                 6           1            55    5     1       0.9203618515E-06      55    5    1         0.2610019334E-06      0.6369665718E-06

    ------------------------------------------------
       NWT REQUIRED            6 OUTER ITERATIONS 
       AND A TOTAL OF         10 INNER ITERATIONS.
    ------------------------------------------------

 NO OUTPUT CONTROL FOR STRESS PERIOD    8   TIME STEP    3
 
 SOLVING FOR HEAD 
                                                   Max.-Head-Change                         Max.-Flux-Residual
  Residual-Control   Outer-Iter.   Inner-Iter.     Column Row Layer    Maximum-Head-Change  Column Row Layer    Maximum-Flux-Residual          L2-NORM 
          0                 1           2            55    5     1      -0.3453354339E+00      55    5    1        -0.6702012357E-01      0.1920476703E+00
          0                 2           2            55    5     1       0.2787800410E-01      55    5    1         0.6580432153E-02      0.1924006553E-01
          0                 3           2            55    5     1      -0.2410038324E-02      55    5    1        -0.5927423728E-03      0.1771898192E-02
          0                 4           2            55    5     1       0.1909542647E-03      55    5    1         0.4747617911E-04      0.1422352895E-03
          0                 5           1            55    5     1      -0.1330240531E-04      55    5    1        -0.3337544475E-05      0.1000041382E-04
          0                 6           1            55    5     1       0.7987577935E-06      55    5    1         0.2022419339E-06      0.6059880817E-06

    ------------------------------------------------
       NWT REQUIRED            6 OUTER ITERATIONS 
       AND A TOTAL OF         10 INNER ITERATIONS.
    ------------------------------------------------

 NO OUTPUT CONTROL FOR STRESS PERIOD    8   TIME STEP    4
 
 SOLVING FOR HEAD 
                                                   Max.-Head-Change                         Max.-Flux-Residual
  Residual-Control   Outer-Iter.   Inner-Iter.     Column Row Layer    Maximum-Head-Change  Column Row Layer    Maximum-Flux-Residual          L2-NORM 
          0                 1           2            55    5     1      -0.3248690528E+00      55    5    1        -0.5478430681E-01      0.1858940977E+00
          0                 2           2            55    5     1       0.2573862565E-01      55    5    1         0.5379686714E-02      0.1866018667E-01
          0                 3           2            55    5     1      -0.2199426802E-02      55    5    1        -0.4845621288E-03      0.1728911991E-02
          0                 4           2            55    5     1       0.1739173061E-03      55    5    1         0.3881194964E-04      0.1390291127E-03
          0                 5           1            55    5     1      -0.1211547735E-04      55    5    1        -0.2728450803E-05      0.9776753770E-05
          0                 6           1            55    5     1       0.7274886882E-06      55    5    1         0.1653332957E-06      0.5924390735E-06

    ------------------------------------------------
       NWT REQUIRED            6 OUTER ITERATIONS 
       AND A TOTAL OF         10 INNER ITERATIONS.
    ------------------------------------------------

 NO OUTPUT CONTROL FOR STRESS PERIOD    8   TIME STEP    5
 
 SOLVING FOR HEAD 
                                                   Max.-Head-Change                         Max.-Flux-Residual
  Residual-Control   Outer-Iter.   Inner-Iter.     Column Row Layer    Maximum-Head-Change  Column Row Layer    Maximum-Flux-Residual          L2-NORM 
          0                 1           2            55    5     1      -0.3175609990E+00      55    5    1        -0.4705436420E-01      0.1823463090E+00
          0                 2           2            55    5     1       0.2480215184E-01      55    5    1         0.4617889808E-02      0.1833670964E-01
          0                 3           2            55    6     1      -0.2112724364E-02      55    5    1        -0.4159450178E-03      0.1709068058E-02
          0                 4           2            55    6     1       0.1674248969E-03      55    5    1         0.3331630602E-04      0.1377592359E-03
          0                 5           1            55    6     1      -0.1166280171E-04      55    5    1        -0.2342108192E-05      0.9690701542E-05
          0                 6           1            55    6     1       0.7003075711E-06      55    5    1         0.1419224820E-06      0.5872375038E-06

    ------------------------------------------------
       NWT REQUIRED            6 OUTER ITERATIONS 
       AND A TOTAL OF         10 INNER ITERATIONS.
    ------------------------------------------------

 NO OUTPUT CONTROL FOR STRESS PERIOD    8   TIME STEP    6
 
 SOLVING FOR HEAD 
                                                   Max.-Head-Change                         Max.-Flux-Residual
  Residual-Control   Outer-Iter.   Inner-Iter.     Column Row Layer    Maximum-Head-Change  Column Row Layer    Maximum-Flux-Residual          L2-NORM 
          0                 1           2            55    5     1      -0.3188170509E+00      55    5    1        -0.4181653849E-01      0.1799918040E+00
          0                 2           2            55    6     1       0.2475443892E-01      55    5    1         0.4098565262E-02      0.1812438520E-01
          0                 3           2            55    6     1      -0.2171891720E-02      55    5    1        -0.3691849749E-03      0.1699382994E-02
          0                 4           2            55    6     1       0.1719463855E-03      55    5    1         0.2957118005E-04      0.1373821355E-03
          0                 5           1            55    6     1      -0.1197657990E-04      55    5    1        -0.2078826613E-05      0.9669870970E-05
          0                 6           1            55    6     1       0.7191504333E-06      55    5    1         0.1259695475E-06      0.5860060378E-06

    ------------------------------------------------
       NWT REQUIRED            6 OUTER ITERATIONS 
       AND A TOTAL OF         10 INNER ITERATIONS.
    ------------------------------------------------

 NO OUTPUT CONTROL FOR STRESS PERIOD    8   TIME STEP    7
 
 SOLVING FOR HEAD 
                                                   Max.-Head-Change                         Max.-Flux-Residual
  Residual-Control   Outer-Iter.   Inner-Iter.     Column Row Layer    Maximum-Head-Change  Column Row Layer    Maximum-Flux-Residual          L2-NORM 
          0                 1           2            55    5     1      -0.3264642767E+00      55    5    1        -0.3810965320E-01      0.1782622208E+00
          0                 2           2            55    6     1       0.2566780012E-01      55    5    1         0.3727724211E-02      0.1797074359E-01
          0                 3           2            55    6     1      -0.2243656257E-02      55    5    1        -0.3358126085E-03      0.1695156817E-02
          0                 4           2            55    6     1       0.1773978177E-03      55    5    1         0.2689825941E-04      0.1375123468E-03
          0                 5           1            55    6     1      -0.1235379096E-04      55    5    1        -0.1890920790E-05      0.9687498845E-05
          0                 6           1            55    6     1       0.7417986734E-06      55    5    1         0.1145844009E-06      0.5871328356E-06

    ------------------------------------------------
       NWT REQUIRED            6 OUTER ITERATIONS 
       AND A TOTAL OF         10 INNER ITERATIONS.
    ------------------------------------------------

 NO OUTPUT CONTROL FOR STRESS PERIOD    8   TIME STEP    8
 
 SOLVING FOR HEAD 
                                                   Max.-Head-Change                         Max.-Flux-Residual
  Residual-Control   Outer-Iter.   Inner-Iter.     Column Row Layer    Maximum-Head-Change  Column Row Layer    Maximum-Flux-Residual          L2-NORM 
          0                 1           2            55    5     1      -0.3404696645E+00      55    5    1        -0.3563456665E-01      0.1769663145E+00
          0                 2           2            55    6     1       0.2679117159E-01      55    5    1         0.3475290266E-02      0.1786262150E-01
          0                 3           2            55    6     1      -0.2332030616E-02      55    5    1        -0.3131226405E-03      0.1695172884E-02
          0                 4           2            55    7     1       0.1843478567E-03      55    5    1         0.2508085635E-04      0.1380460506E-03
          0                 5           1            55    7     1      -0.1283856828E-04      55    5    1        -0.1763157694E-05      0.9736787041E-05
          0                 6           1            55    7     1       0.7709063987E-06      55    5    1         0.1068429698E-06      0.5902237738E-06

    ------------------------------------------------
       NWT REQUIRED            6 OUTER ITERATIONS 
       AND A TOTAL OF         10 INNER ITERATIONS.
    ------------------------------------------------

 NO OUTPUT CONTROL FOR STRESS PERIOD    8   TIME STEP    9
 
 SOLVING FOR HEAD 
                                                   Max.-Head-Change                         Max.-Flux-Residual
  Residual-Control   Outer-Iter.   Inner-Iter.     Column Row Layer    Maximum-Head-Change  Column Row Layer    Maximum-Flux-Residual          L2-NORM 
          0                 1           2            55    5     1      -0.3588670082E+00      55    5    1        -0.3375286241E-01      0.1758665035E+00
          0                 2           2            55    6     1       0.2812331135E-01      55    5    1         0.3279132003E-02      0.1775967264E-01
          0                 3           2            55    7     1      -0.2458115367E-02      55    5    1        -0.2955136385E-03      0.1695923580E-02
          0                 4           2            55    7     1       0.1945094645E-03      55    5    1         0.2367036338E-04      0.1387386383E-03
          0                 5           1            55    7     1      -0.1354309295E-04      55    5    1        -0.1664000203E-05      0.9802247690E-05
          0                 6           1            55    7     1       0.8131868853E-06      55    5    1         0.1008329664E-06      0.5943882233E-06

    ------------------------------------------------
       NWT REQUIRED            6 OUTER ITERATIONS 
       AND A TOTAL OF         10 INNER ITERATIONS.
    ------------------------------------------------

 NO OUTPUT CONTROL FOR STRESS PERIOD    8   TIME STEP   10
 
 SOLVING FOR HEAD 
                                                   Max.-Head-Change                         Max.-Flux-Residual
  Residual-Control   Outer-Iter.   Inner-Iter.     Column Row Layer    Maximum-Head-Change  Column Row Layer    Maximum-Flux-Residual          L2-NORM 
          0                 1           2            55    5     1      -0.3813744649E+00      55    5    1        -0.3229208504E-01      0.1749204126E+00
          0                 2           2            55    6     1       0.2967059906E-01      55    5    1         0.3121917472E-02      0.1766902992E-01
          0                 3           2            55    7     1      -0.2598006330E-02      55    5    1        -0.2814259511E-03      0.1697875161E-02
          0                 4           2            55    7     1       0.2053338060E-03      55    5    1         0.2254185549E-04      0.1396009914E-03
          0                 5           1            55    7     1      -0.1429168390E-04      55    5    1        -0.1584666153E-05      0.9884528929E-05
          0                 6           1            55    7     1       0.8580823183E-06      55    5    1         0.9602453388E-07      0.5996938850E-06

    ------------------------------------------------
       NWT REQUIRED            6 OUTER ITERATIONS 
       AND A TOTAL OF         10 INNER ITERATIONS.
    ------------------------------------------------

 NO OUTPUT CONTROL FOR STRESS PERIOD    8   TIME STEP   11
 
 SOLVING FOR HEAD 
                                                   Max.-Head-Change                         Max.-Flux-Residual
  Residual-Control   Outer-Iter.   Inner-Iter.     Column Row Layer    Maximum-Head-Change  Column Row Layer    Maximum-Flux-Residual          L2-NORM 
          0                 1           2            55    5     1      -0.4088651622E+00      55    5    1        -0.3130057411E-01      0.1741539412E+00
          0                 2           2            55    6     1       0.3146902404E-01      55    5    1         0.3007056144E-02      0.1759158694E-01
          0                 3           2            55    7     1      -0.2751576632E-02      55    5    1        -0.2711741256E-03      0.1701070437E-02
          0                 4           2            55    7     1       0.2171472599E-03      55    4    1        -0.2222740105E-04      0.1406353417E-03
          0                 5           1            55    7     1      -0.1510620173E-04      55    4    1         0.1602219969E-05      0.9984303508E-05
          0                 6           1            55    7     1       0.9068821141E-06      55    4    1        -0.9723173466E-07      0.6062224151E-06

    ------------------------------------------------
       NWT REQUIRED            6 OUTER ITERATIONS 
       AND A TOTAL OF         10 INNER ITERATIONS.
    ------------------------------------------------

 NO OUTPUT CONTROL FOR STRESS PERIOD    8   TIME STEP   12
 
 SOLVING FOR HEAD 
                                                   Max.-Head-Change                         Max.-Flux-Residual
  Residual-Control   Outer-Iter.   Inner-Iter.     Column Row Layer    Maximum-Head-Change  Column Row Layer    Maximum-Flux-Residual          L2-NORM 
          0                 1           2            55    5     1      -0.4404201054E+00      55    5    1        -0.3049056236E-01      0.1734723448E+00
          0                 2           2            55    6     1       0.3352070031E-01      55    5    1         0.2906399841E-02      0.1752594707E-01
          0                 3           2            55    7     1      -0.2921675413E-02      55    5    1        -0.2622200275E-03      0.1705393251E-02
          0                 4           2            55    7     1       0.2301534149E-03      55    4    1        -0.2289682734E-04      0.1418071240E-03
          0                 5           1            55    7     1      -0.1599977411E-04      55    4    1         0.1662563096E-05      0.1009813253E-04
          0                 6           1            55    7     1       0.9603422388E-06      55    4    1        -0.1010671506E-06      0.6137588913E-06

    ------------------------------------------------
       NWT REQUIRED            6 OUTER ITERATIONS 
       AND A TOTAL OF         10 INNER ITERATIONS.
    ------------------------------------------------

 NO OUTPUT CONTROL FOR STRESS PERIOD    8   TIME STEP   13
 
 SOLVING FOR HEAD 
                                                   Max.-Head-Change                         Max.-Flux-Residual
  Residual-Control   Outer-Iter.   Inner-Iter.     Column Row Layer    Maximum-Head-Change  Column Row Layer    Maximum-Flux-Residual          L2-NORM 
          0                 1           2            55    5     1      -0.4762536703E+00      55    5    1        -0.2982337823E-01      0.1728022605E+00
          0                 2           2            55    6     1       0.3583818462E-01      55    5    1         0.2815241181E-02      0.1746206613E-01
          0                 3           2            55    7     1      -0.3110400376E-02      55    5    1        -0.2541433748E-03      0.1709557779E-02
          0                 4           2            55    7     1       0.2444930071E-03      55    4    1        -0.2358011684E-04      0.1430229054E-03
          0                 5           1            55    7     1      -0.1698092773E-04      55    4    1         0.1725774145E-05      0.1022114706E-04
          0                 6           1            55    7     1       0.1018930919E-05      55    4    1        -0.1051493350E-06      0.6220890389E-06
          0                 7           1            55    7     1      -0.5147577808E-07      55    4    1         0.5357395416E-08      0.3173991033E-07

    ------------------------------------------------
       NWT REQUIRED            7 OUTER ITERATIONS 
       AND A TOTAL OF         11 INNER ITERATIONS.
    ------------------------------------------------

 NO OUTPUT CONTROL FOR STRESS PERIOD    8   TIME STEP   14
 
 SOLVING FOR HEAD 
                                                   Max.-Head-Change                         Max.-Flux-Residual
  Residual-Control   Outer-Iter.   Inner-Iter.     Column Row Layer    Maximum-Head-Change  Column Row Layer    Maximum-Flux-Residual          L2-NORM 
          0                 1           2            55    5     1      -0.5173591257E+00      55    5    1        -0.2936901950E-01      0.1721660484E+00
          0                 2           2            55    6     1       0.3845822557E-01      55    5    1         0.2738512857E-02      0.1740681625E-01
          0                 3           2            55    7     1      -0.3320228965E-02      55    4    1         0.2556209425E-03      0.1714549420E-02
          0                 4           2            55    7     1       0.2603324233E-03      55    4    1        -0.2428508567E-04      0.1443141723E-03
          0                 5           1            55    7     1      -0.1805970367E-04      55    4    1         0.1792358045E-05      0.1035207596E-04
          0                 6           1            55    7     1       0.1083194749E-05      55    4    1        -0.1095166562E-06      0.6310391277E-06
          0                 7           1            55    7     1      -0.5471585019E-07      55    4    1         0.5581050733E-08      0.3220887108E-07

    ------------------------------------------------
       NWT REQUIRED            7 OUTER ITERATIONS 
       AND A TOTAL OF         11 INNER ITERATIONS.
    ------------------------------------------------

 NO OUTPUT CONTROL FOR STRESS PERIOD    8   TIME STEP   15
 
 SOLVING FOR HEAD 
                                                   Max.-Head-Change                         Max.-Flux-Residual
  Residual-Control   Outer-Iter.   Inner-Iter.     Column Row Layer    Maximum-Head-Change  Column Row Layer    Maximum-Flux-Residual          L2-NORM 
          0                 1           2            55    5     1      -0.5636727448E+00      55    5    1        -0.2901081840E-01      0.1715174758E+00
          0                 2           2            55    6     1       0.4139709487E-01      55    5    1         0.2663760687E-02      0.1733639783E-01
          0                 3           2            55    7     1      -0.3553009032E-02      55    4    1         0.2590115463E-03      0.1717984305E-02
          0                 4           2            55    7     1       0.2777864316E-03      55    4    1        -0.2498123706E-04      0.1455372740E-03
          0                 5           1            55    7     1      -0.1924235154E-04      55    4    1         0.1859933409E-05      0.1048419614E-04
          0                 6           1            55    7     1       0.1153439277E-05      55    4    1        -0.1140251773E-06      0.6403251709E-06
          0                 7           1            55    7     1      -0.5825332740E-07      55    4    1         0.5813767689E-08      0.3270107218E-07

    ------------------------------------------------
       NWT REQUIRED            7 OUTER ITERATIONS 
       AND A TOTAL OF         11 INNER ITERATIONS.
    ------------------------------------------------

 NO OUTPUT CONTROL FOR STRESS PERIOD    8   TIME STEP   16
 
 SOLVING FOR HEAD 
                                                   Max.-Head-Change                         Max.-Flux-Residual
  Residual-Control   Outer-Iter.   Inner-Iter.     Column Row Layer    Maximum-Head-Change  Column Row Layer    Maximum-Flux-Residual          L2-NORM 
          0                 1           2            55    5     1      -0.6156983564E+00      55    5    1        -0.2873295058E-01      0.1709387901E+00
          0                 2           2            55    5     1       0.4470891438E-01      55    5    1         0.2587460973E-02      0.1726689366E-01
          0                 3           2            55    7     1      -0.3810370196E-02      55    4    1         0.2621375768E-03      0.1720902375E-02
          0                 4           2            55    7     1       0.2969495683E-03      55    4    1        -0.2565645688E-04      0.1467550344E-03
          0                 5           1            55    7     1      -0.2053347736E-04      55    4    1         0.1927415488E-05      0.1062212419E-04
          0                 6           1            55    7     1       0.1229858457E-05      55    4    1        -0.1186047731E-06      0.6502882961E-06
          0                 7           1            55    7     1      -0.6209571349E-07      55    4    1         0.6052173873E-08      0.3323685936E-07

    ------------------------------------------------
       NWT REQUIRED            7 OUTER ITERATIONS 
       AND A TOTAL OF         11 INNER ITERATIONS.
    ------------------------------------------------

 NO OUTPUT CONTROL FOR STRESS PERIOD    8   TIME STEP   17
 
 SOLVING FOR HEAD 
                                                   Max.-Head-Change                         Max.-Flux-Residual
  Residual-Control   Outer-Iter.   Inner-Iter.     Column Row Layer    Maximum-Head-Change  Column Row Layer    Maximum-Flux-Residual          L2-NORM 
          0                 1           2            55    5     1      -0.6744423227E+00      55    5    1        -0.2857297772E-01      0.1704096278E+00
          0                 2           2            55    5     1       0.4876222689E-01      55    5    1         0.2510127434E-02      0.1719612705E-01
          0                 3           2            55    7     1      -0.4094429558E-02      55    4    1         0.2649987980E-03      0.1723339101E-02
          0                 4           2            55    7     1       0.3179509287E-03      55    4    1        -0.2630903787E-04      0.1479522644E-03
          0                 5           1            55    7     1      -0.2193982610E-04      55    4    1         0.1994516845E-05      0.1076316826E-04
          0                 6           1            55    7     1       0.1312760062E-05      55    4    1        -0.1232338853E-06      0.6607137527E-06
          0                 7           1            55    7     1      -0.6625563312E-07      55    4    1         0.6295510779E-08      0.3380435471E-07

    ------------------------------------------------
       NWT REQUIRED            7 OUTER ITERATIONS 
       AND A TOTAL OF         11 INNER ITERATIONS.
    ------------------------------------------------

 NO OUTPUT CONTROL FOR STRESS PERIOD    8   TIME STEP   18
 
 SOLVING FOR HEAD 
                                                   Max.-Head-Change                         Max.-Flux-Residual
  Residual-Control   Outer-Iter.   Inner-Iter.     Column Row Layer    Maximum-Head-Change  Column Row Layer    Maximum-Flux-Residual          L2-NORM 
          0                 1           3            55    5     1      -0.7399173787E+00      55    5    1        -0.2842146645E-01      0.1698798548E+00
          0                 2           2            55    5     1       0.5323460587E-01      55    5    1         0.2418863939E-02      0.1714740082E-01
          0                 3           2            55    7     1      -0.4406374516E-02      55    4    1         0.2672720159E-03      0.1728756969E-02
          0                 4           2            55    7     1       0.3408479790E-03      55    4    1        -0.2690594339E-04      0.1493587580E-03
          0                 5           1            55    7     1      -0.2346313502E-04      55    4    1         0.2058515710E-05      0.1091648150E-04
          0                 6           1            55    7     1       0.1402167796E-05      55    4    1        -0.1277349093E-06      0.6717975458E-06
          0                 7           1            55    7     1      -0.7073159887E-07      55    4    1         0.6534851771E-08      0.3440463890E-07

    ------------------------------------------------
       NWT REQUIRED            7 OUTER ITERATIONS 
       AND A TOTAL OF         12 INNER ITERATIONS.
    ------------------------------------------------

 NO OUTPUT CONTROL FOR STRESS PERIOD    8   TIME STEP   19
 
 SOLVING FOR HEAD 
                                                   Max.-Head-Change                         Max.-Flux-Residual
  Residual-Control   Outer-Iter.   Inner-Iter.     Column Row Layer    Maximum-Head-Change  Column Row Layer    Maximum-Flux-Residual          L2-NORM 
          0                 1           3            55    5     1      -0.8135556594E+00      55    5    1        -0.2834955694E-01      0.1693326009E+00
          0                 2           2            55    5     1       0.5820688813E-01      55    6    1         0.2382780002E-02      0.1708090795E-01
          0                 3           2            55    7     1      -0.4748518293E-02      55    4    1         0.2689946434E-03      0.1730322072E-02
          0                 4           2            55    7     1       0.3657744401E-03      55    4    1        -0.2744940030E-04      0.1504481208E-03
          0                 5           1            55    7     1      -0.2510973680E-04      55    4    1         0.2119345306E-05      0.1105514083E-04
          0                 6           1            55    7     1       0.1498312524E-05      55    4    1        -0.1320848853E-06      0.6825167584E-06
          0                 7           1            55    7     1      -0.7553057429E-07      55    4    1         0.6768963168E-08      0.3500721499E-07

    ------------------------------------------------
       NWT REQUIRED            7 OUTER ITERATIONS 
       AND A TOTAL OF         12 INNER ITERATIONS.
    ------------------------------------------------

 NO OUTPUT CONTROL FOR STRESS PERIOD    8   TIME STEP   20
 
 SOLVING FOR HEAD 
                                                   Max.-Head-Change                         Max.-Flux-Residual
  Residual-Control   Outer-Iter.   Inner-Iter.     Column Row Layer    Maximum-Head-Change  Column Row Layer    Maximum-Flux-Residual          L2-NORM 
          0                 1           3            55    5     1      -0.8968337142E+00      55    5    1        -0.2837703024E-01      0.1687998027E+00
          0                 2           2            55    5     1       0.6374798734E-01      55    6    1         0.2390219887E-02      0.1698961782E-01
          0                 3           2            55    7     1      -0.5124565275E-02      55    4    1         0.2701056058E-03      0.1729025707E-02
          0                 4           2            55    7     1       0.3929664134E-03      55    4    1        -0.2793525728E-04      0.1513157431E-03
          0                 5           1            55    7     1      -0.2689236978E-04      55    4    1         0.2176515413E-05      0.1118182699E-04
          0                 6           1            55    7     1       0.1601824761E-05      55    4    1        -0.1362295594E-06      0.6927494105E-06
          0                 7           1            55    7     1      -0.8067983638E-07      55    4    1         0.6994526291E-08      0.3559339916E-07

    ------------------------------------------------
       NWT REQUIRED            7 OUTER ITERATIONS 
       AND A TOTAL OF         12 INNER ITERATIONS.
    ------------------------------------------------

 NO OUTPUT CONTROL FOR STRESS PERIOD    8   TIME STEP   21
 
 SOLVING FOR HEAD 
                                                   Max.-Head-Change                         Max.-Flux-Residual
  Residual-Control   Outer-Iter.   Inner-Iter.     Column Row Layer    Maximum-Head-Change  Column Row Layer    Maximum-Flux-Residual          L2-NORM 
          0                 1           3            55    5     1      -0.9907338891E+00      55    5    1        -0.2842581365E-01      0.1682911966E+00
          0                 2           2            55    5     1       0.6988907680E-01      55    6    1         0.2408769865E-02      0.1691934467E-01
          0                 3           2            55    7     1      -0.5538779484E-02      55    4    1         0.2704628515E-03      0.1730251606E-02
          0                 4           2            55    7     1       0.4227003652E-03      55    4    1        -0.2835801548E-04      0.1523586353E-03
          0                 5           1            55    7     1      -0.2882576346E-04      55    4    1         0.2229731561E-05      0.1131875224E-04
          0                 6           1            55    7     1       0.1713401560E-05      55    4    1        -0.1401321488E-06      0.7035041853E-06
          0                 7           1            55    7     1      -0.8620711353E-07      55    4    1         0.7208222907E-08      0.3620655050E-07

    ------------------------------------------------
       NWT REQUIRED            7 OUTER ITERATIONS 
       AND A TOTAL OF         12 INNER ITERATIONS.
    ------------------------------------------------

 NO OUTPUT CONTROL FOR STRESS PERIOD    8   TIME STEP   22
 
 SOLVING FOR HEAD 
                                                   Max.-Head-Change                         Max.-Flux-Residual
  Residual-Control   Outer-Iter.   Inner-Iter.     Column Row Layer    Maximum-Head-Change  Column Row Layer    Maximum-Flux-Residual          L2-NORM 
          0                 1           3            55    5     1      -0.1098443819E+01      55    5    1        -0.2858582020E-01      0.1678206058E+00
          0                 2           2            55    5     1       0.7679844503E-01      55    6    1         0.2441602237E-02      0.1683688499E-01
          0                 3           2            55    7     1      -0.5999088390E-02      55    4    1         0.2702249981E-03      0.1728660466E-02
          0                 4           2            55    7     1       0.4554994744E-03      55    4    1        -0.2874241101E-04      0.1531608602E-03
          0                 5           1            55    7     1      -0.3093907741E-04      55    4    1         0.2280929259E-05      0.1144292522E-04
          0                 6           1            55    7     1       0.1834554474E-05      55    4    1        -0.1438713484E-06      0.7137584105E-06
          0                 7           1            55    7     1      -0.9218137897E-07      50    4    1         0.7416071757E-08      0.3680579268E-07

    ------------------------------------------------
       NWT REQUIRED            7 OUTER ITERATIONS 
       AND A TOTAL OF         12 INNER ITERATIONS.
    ------------------------------------------------

 NO OUTPUT CONTROL FOR STRESS PERIOD    8   TIME STEP   23
 
 SOLVING FOR HEAD 
                                                   Max.-Head-Change                         Max.-Flux-Residual
  Residual-Control   Outer-Iter.   Inner-Iter.     Column Row Layer    Maximum-Head-Change  Column Row Layer    Maximum-Flux-Residual          L2-NORM 
          0                 1           3            55    5     1      -0.1223052295E+01      55    5    1        -0.2880492311E-01      0.1674493371E+00
          0                 2           2            55    5     1       0.8480865306E-01      55    6    1         0.2494952002E-02      0.1673824487E-01
          0                 3           2            55    7     1      -0.6515948983E-02      55    4    1         0.2578555305E-03      0.1723342800E-02
          0                 4           2            55    7     1       0.4921748391E-03      55    4    1        -0.2820985322E-04      0.1536054482E-03
          0                 5           1            55    7     1      -0.3328240179E-04      55    4    1         0.2279402562E-05      0.1154509912E-04
          0                 6           1            55    7     1       0.1967727444E-05      55    4    1        -0.1452463390E-06      0.7230010552E-06
          0                 7           1            55    7     1      -0.9869853139E-07      50    4    1         0.7571634875E-08      0.3737308942E-07

    ------------------------------------------------
       NWT REQUIRED            7 OUTER ITERATIONS 
       AND A TOTAL OF         12 INNER ITERATIONS.
    ------------------------------------------------

 NO OUTPUT CONTROL FOR STRESS PERIOD    8   TIME STEP   24
 
 SOLVING FOR HEAD 
                                                   Max.-Head-Change                         Max.-Flux-Residual
  Residual-Control   Outer-Iter.   Inner-Iter.     Column Row Layer    Maximum-Head-Change  Column Row Layer    Maximum-Flux-Residual          L2-NORM 
          0                 1           3            55    5     1      -0.1362263311E+01      55    5    1        -0.2918750045E-01      0.1669852102E+00
          0                 2           2            55    5     1       0.9293169707E-01      55    6    1         0.2570763738E-02      0.1668731480E-01
          0                 3           2            55    7     1      -0.7071786322E-02      54    4    1         0.2577399821E-03      0.1724913378E-02
          0                 4           2            55    7     1       0.5315664070E-03      55    4    1        -0.2812395393E-04      0.1545278085E-03
          0                 5           1            55    7     1      -0.3580233645E-04      55    4    1         0.2296171940E-05      0.1166926391E-04
          0                 6           1            55    7     1       0.2111694228E-05      50    4    1        -0.1471221633E-06      0.7329009948E-06
          0                 7           1            55    7     1      -0.1057625706E-06      50    4    1         0.7723004458E-08      0.3795417619E-07

    ------------------------------------------------
       NWT REQUIRED            7 OUTER ITERATIONS 
       AND A TOTAL OF         12 INNER ITERATIONS.
    ------------------------------------------------

 NO OUTPUT CONTROL FOR STRESS PERIOD    8   TIME STEP   25
 
 SOLVING FOR HEAD 
                                                   Max.-Head-Change                         Max.-Flux-Residual
  Residual-Control   Outer-Iter.   Inner-Iter.     Column Row Layer    Maximum-Head-Change  Column Row Layer    Maximum-Flux-Residual          L2-NORM 
          0                 1           3            55    5     1      -0.1519109414E+01      55    5    1        -0.2957744665E-01      0.1663589517E+00
          0                 2           2            55    5     1       0.1014087991E+00      55    6    1         0.2672976400E-02      0.1663137154E-01
          0                 3           2            55    7     1      -0.7671336336E-02      54    4    1         0.2584577912E-03      0.1725455333E-02
          0                 4           2            55    7     1       0.5739007941E-03      54    4    1        -0.2803452118E-04      0.1553041212E-03
          0                 5           1            55    7     1      -0.3850156284E-04      55    4    1         0.2291736073E-05      0.1177878625E-04
          0                 6           1            55    7     1       0.2265999063E-05      50    4    1        -0.1481734433E-06      0.7416808413E-06
          0                 7           1            55    7     1      -0.1133230126E-06      50    4    1         0.7816669090E-08      0.3847630941E-07

    ------------------------------------------------
       NWT REQUIRED            7 OUTER ITERATIONS 
       AND A TOTAL OF         12 INNER ITERATIONS.
    ------------------------------------------------

 NO OUTPUT CONTROL FOR STRESS PERIOD    8   TIME STEP   26
 
 SOLVING FOR HEAD 
                                                   Max.-Head-Change                         Max.-Flux-Residual
  Residual-Control   Outer-Iter.   Inner-Iter.     Column Row Layer    Maximum-Head-Change  Column Row Layer    Maximum-Flux-Residual          L2-NORM 
          0                 1           3            55    5     1      -0.1701840635E+01      55    5    1        -0.3004346719E-01      0.1657005193E+00
          0                 2           3            55    5     1       0.1104029706E+00      55    6    1         0.2817197636E-02      0.1657517464E-01
          0                 3           2            55    7     1      -0.8331553418E-02      54    4    1         0.2585772867E-03      0.1721180869E-02
          0                 4           2            55    7     1       0.6202828553E-03      54    4    1        -0.2826078549E-04      0.1555490582E-03
          0                 5           1            55    7     1      -0.4143995750E-04      54    4    1         0.2309649370E-05      0.1185230506E-04
          0                 6           1            55    7     1       0.2434032050E-05      54    4    1        -0.1505673688E-06      0.7486397039E-06
          0                 7           1            55    7     1      -0.1215390942E-06      54    4    1         0.7981056704E-08      0.3893445262E-07

    ------------------------------------------------
       NWT REQUIRED            7 OUTER ITERATIONS 
       AND A TOTAL OF         13 INNER ITERATIONS.
    ------------------------------------------------

 NO OUTPUT CONTROL FOR STRESS PERIOD    8   TIME STEP   27
 
 SOLVING FOR HEAD 
                                                   Max.-Head-Change                         Max.-Flux-Residual
  Residual-Control   Outer-Iter.   Inner-Iter.     Column Row Layer    Maximum-Head-Change  Column Row Layer    Maximum-Flux-Residual          L2-NORM 
          0                 1           3            55    5     1      -0.1916365844E+01      55    5    1        -0.3064213912E-01      0.1650390843E+00
          0                 2           3            55    5     1       0.1196041484E+00      55    6    1         0.3026132172E-02      0.1660531668E-01
          0                 3           2            55    7     1      -0.9063275312E-02      55    6    1        -0.2735004971E-03      0.1724138921E-02
          0                 4           2            55    7     1       0.6715962229E-03      54    4    1        -0.2842181300E-04      0.1562755836E-03
          0                 5           1            55    7     1      -0.4468323808E-04      54    4    1         0.2336541910E-05      0.1194953142E-04
          0                 6           1            55    7     1       0.2620409797E-05      54    4    1        -0.1530190459E-06      0.7564013529E-06
          0                 7           1            55    7     1      -0.1306308185E-06      54    4    1         0.8151981756E-08      0.3941316246E-07

    ------------------------------------------------
       NWT REQUIRED            7 OUTER ITERATIONS 
       AND A TOTAL OF         13 INNER ITERATIONS.
    ------------------------------------------------

 NO OUTPUT CONTROL FOR STRESS PERIOD    8   TIME STEP   28
 
 SOLVING FOR HEAD 
                                                   Max.-Head-Change                         Max.-Flux-Residual
  Residual-Control   Outer-Iter.   Inner-Iter.     Column Row Layer    Maximum-Head-Change  Column Row Layer    Maximum-Flux-Residual          L2-NORM 
          0                 1           3            55    5     1      -0.2172298857E+01      55    5    1        -0.3144314747E-01      0.1644253084E+00
          0                 2           3            55    5     1       0.1285238602E+00      55    6    1         0.3334409145E-02      0.1678967025E-01
          0                 3           2            55    7     1      -0.9885541452E-02      55    6    1        -0.3022052120E-03      0.1733670659E-02
          0                 4           2            55    7     1       0.7293016427E-03      54    4    1        -0.2851539002E-04      0.1572113264E-03
          0                 5           1            55    7     1      -0.4833083374E-04      54    4    1         0.2357282252E-05      0.1205397611E-04
          0                 6           1            55    7     1       0.2831399604E-05      54    4    1        -0.1550413531E-06      0.7645032372E-06
          0                 7           1            55    7     1      -0.1409031831E-06      54    4    1         0.8303439936E-08      0.3992970452E-07

    ------------------------------------------------
       NWT REQUIRED            7 OUTER ITERATIONS 
       AND A TOTAL OF         13 INNER ITERATIONS.
    ------------------------------------------------

 NO OUTPUT CONTROL FOR STRESS PERIOD    8   TIME STEP   29
 
 SOLVING FOR HEAD 
                                                   Max.-Head-Change                         Max.-Flux-Residual
  Residual-Control   Outer-Iter.   Inner-Iter.     Column Row Layer    Maximum-Head-Change  Column Row Layer    Maximum-Flux-Residual          L2-NORM 
          0                 1           3            55    5     1      -0.2483229191E+01      55    5    1        -0.3250514906E-01      0.1638607215E+00
          0                 2           3            55    6     1       0.1391506577E+00      55    6    1         0.3799061507E-02      0.1735238602E-01
          0                 3           2            55    7     1      -0.1082073299E-01      55    6    1        -0.3459749951E-03      0.1770045894E-02
          0                 4           2            55    7     1       0.7952592001E-03      54    4    1        -0.2852988127E-04      0.1598111727E-03
          0                 5           1            55    7     1      -0.5251755419E-04      54    4    1         0.2371105364E-05      0.1225323570E-04
          0                 6           1            55    7     1       0.3077671410E-05      54    4    1        -0.1565840915E-06      0.7779189214E-06
          0                 7           1            55    7     1      -0.1529158216E-06      54    4    1         0.8433522325E-08      0.4074109568E-07

    ------------------------------------------------
       NWT REQUIRED            7 OUTER ITERATIONS 
       AND A TOTAL OF         13 INNER ITERATIONS.
    ------------------------------------------------

 NO OUTPUT CONTROL FOR STRESS PERIOD    8   TIME STEP   30



 STREAM LISTING     PERIOD      8   STEP       30

 LAYER ROW COL. STREAM  RCH.   FLOW INTO    STREAM     FLOW OUT OF   OVRLND.    DIRECT     STREAM      STREAM      STREAM     STREAM  STREAMBED   FLOW TO   CHNG. UNSAT. 
                SEG.NO.  NO.   STRM. RCH.    LOSS       STRM. RCH.   RUNOFF     PRECIP       ET         HEAD        DEPTH      WIDTH  CONDCTNC.   WAT. TAB.

   1    4    1     1     1    3.3910E+01  8.5167E-03   3.3901E+01  0.000E+00  0.000E+00  0.000E+00  1.44048E+02  4.198E+00  8.792E+00  1.813E-03  8.619E-03 -1.026E-04
   1    4    2     1     2    3.3901E+01  8.5148E-03   3.3893E+01  0.000E+00  0.000E+00  0.000E+00  1.43748E+02  4.198E+00  8.790E+00  1.813E-03  8.617E-03 -1.019E-04
   1    4    3     1     3    3.3893E+01  8.5128E-03   3.3884E+01  0.000E+00  0.000E+00  0.000E+00  1.43447E+02  4.197E+00  8.789E+00  1.812E-03  8.613E-03 -1.006E-04
   1    4    4     1     4    3.3884E+01  8.5109E-03   3.3876E+01  0.000E+00  0.000E+00  0.000E+00  1.43147E+02  4.197E+00  8.787E+00  1.812E-03  8.610E-03 -9.865E-05
   1    4    5     1     5    3.3876E+01  8.5089E-03   3.3867E+01  0.000E+00  0.000E+00  0.000E+00  1.42846E+02  4.196E+00  8.786E+00  1.812E-03  8.605E-03 -9.601E-05
   1    4    6     1     6    3.3867E+01  8.5069E-03   3.3859E+01  0.000E+00  0.000E+00  0.000E+00  1.42546E+02  4.196E+00  8.784E+00  1.812E-03  8.600E-03 -9.271E-05
   1    4    7     1     7    3.3859E+01  8.5050E-03   3.3850E+01  0.000E+00  0.000E+00  0.000E+00  1.42246E+02  4.196E+00  8.782E+00  1.811E-03  8.594E-03 -8.877E-05
   1    4    8     1     8    3.3850E+01  8.5030E-03   3.3842E+01  0.000E+00  0.000E+00  0.000E+00  1.41945E+02  4.195E+00  8.781E+00  1.811E-03  8.587E-03 -8.418E-05
   1    4    9     1     9    3.3842E+01  8.5011E-03   3.3833E+01  0.000E+00  0.000E+00  0.000E+00  1.41645E+02  4.195E+00  8.779E+00  1.811E-03  8.580E-03 -7.897E-05
   1    4   10     1    10    3.3833E+01  8.4991E-03   3.3825E+01  0.000E+00  0.000E+00  0.000E+00  1.41344E+02  4.194E+00  8.777E+00  1.811E-03  8.572E-03 -7.314E-05
   1    4   11     1    11    3.3825E+01  8.4972E-03   3.3816E+01  0.000E+00  0.000E+00  0.000E+00  1.41044E+02  4.194E+00  8.776E+00  1.810E-03  8.564E-03 -6.671E-05
   1    4   12     1    12    3.3816E+01  8.4952E-03   3.3808E+01  0.000E+00  0.000E+00  0.000E+00  1.40743E+02  4.194E+00  8.774E+00  1.810E-03  8.555E-03 -5.971E-05
   1    4   13     1    13    3.3808E+01  8.4933E-03   3.3799E+01  0.000E+00  0.000E+00  0.000E+00  1.40443E+02  4.193E+00  8.772E+00  1.810E-03  8.545E-03 -5.212E-05
   1    4   14     1    14    3.3799E+01  8.4913E-03   3.3791E+01  0.000E+00  0.000E+00  0.000E+00  1.40143E+02  4.193E+00  8.771E+00  1.809E-03  8.535E-03 -4.398E-05
   1    4   15     1    15    3.3791E+01  8.4894E-03   3.3782E+01  0.000E+00  0.000E+00  0.000E+00  1.39842E+02  4.192E+00  8.769E+00  1.809E-03  8.525E-03 -3.528E-05
   1    4   16     1    16    3.3782E+01  8.4874E-03   3.3774E+01  0.000E+00  0.000E+00  0.000E+00  1.39542E+02  4.192E+00  8.767E+00  1.809E-03  8.513E-03 -2.603E-05
   1    4   17     1    17    3.3774E+01  8.4855E-03   3.3765E+01  0.000E+00  0.000E+00  0.000E+00  1.39241E+02  4.191E+00  8.766E+00  1.809E-03  8.502E-03 -1.624E-05
   1    4   18     1    18    3.3765E+01  8.4835E-03   3.3757E+01  0.000E+00  0.000E+00  0.000E+00  1.38941E+02  4.191E+00  8.764E+00  1.808E-03  8.489E-03 -5.902E-06
   1    4   19     1    19    3.3757E+01  8.4816E-03   3.3749E+01  0.000E+00  0.000E+00  0.000E+00  1.38641E+02  4.191E+00  8.762E+00  1.808E-03  8.477E-03  5.007E-06
   1    4   20     1    20    3.3749E+01  8.4796E-03   3.3740E+01  0.000E+00  0.000E+00  0.000E+00  1.38340E+02  4.190E+00  8.761E+00  1.808E-03  8.463E-03  1.650E-05
   1    4   21     1    21    3.3740E+01  8.4777E-03   3.3732E+01  0.000E+00  0.000E+00  0.000E+00  1.38040E+02  4.190E+00  8.759E+00  1.808E-03  8.449E-03  2.862E-05
   1    4   22     1    22    3.3732E+01  8.4757E-03   3.3723E+01  0.000E+00  0.000E+00  0.000E+00  1.37739E+02  4.189E+00  8.758E+00  1.807E-03  8.434E-03  4.140E-05
   1    4   23     1    23    3.3723E+01  8.4738E-03   3.3715E+01  0.000E+00  0.000E+00  0.000E+00  1.37439E+02  4.189E+00  8.756E+00  1.807E-03  8.419E-03  5.490E-05
   1    4   24     1    24    3.3715E+01  8.4718E-03   3.3706E+01  0.000E+00  0.000E+00  0.000E+00  1.37139E+02  4.189E+00  8.754E+00  1.807E-03  8.403E-03  6.923E-05
   1    4   25     1    25    3.3706E+01  8.4699E-03   3.3698E+01  0.000E+00  0.000E+00  0.000E+00  1.36838E+02  4.188E+00  8.753E+00  1.807E-03  8.385E-03  8.456E-05
   1    4   26     1    26    3.3698E+01  8.4679E-03   3.3689E+01  0.000E+00  0.000E+00  0.000E+00  1.36538E+02  4.188E+00  8.751E+00  1.806E-03  8.367E-03  1.010E-04
   1    4   27     1    27    3.3689E+01  8.4660E-03   3.3681E+01  0.000E+00  0.000E+00  0.000E+00  1.36237E+02  4.187E+00  8.749E+00  1.806E-03  8.347E-03  1.187E-04
   1    4   28     1    28    3.3681E+01  8.4640E-03   3.3672E+01  0.000E+00  0.000E+00  0.000E+00  1.35937E+02  4.187E+00  8.748E+00  1.806E-03  8.326E-03  1.377E-04
   1    4   29     1    29    3.3672E+01  8.4621E-03   3.3664E+01  0.000E+00  0.000E+00  0.000E+00  1.35637E+02  4.187E+00  8.746E+00  1.806E-03  8.304E-03  1.584E-04
   1    4   30     1    30    3.3664E+01  8.4601E-03   3.3655E+01  0.000E+00  0.000E+00  0.000E+00  1.35336E+02  4.186E+00  8.744E+00  1.805E-03  8.281E-03  1.794E-04
   1    4   31     1    31    3.3655E+01  8.4582E-03   3.3647E+01  0.000E+00  0.000E+00  0.000E+00  1.35036E+02  4.186E+00  8.743E+00  1.805E-03  8.287E-03  1.708E-04
   1    4   32     1    32    3.3647E+01  8.4562E-03   3.3638E+01  0.000E+00  0.000E+00  0.000E+00  1.34735E+02  4.185E+00  8.741E+00  1.805E-03  8.295E-03  1.610E-04
   1    4   33     1    33    3.3638E+01  8.4543E-03   3.3630E+01  0.000E+00  0.000E+00  0.000E+00  1.34435E+02  4.185E+00  8.739E+00  1.805E-03  8.304E-03  1.500E-04
   1    4   34     1    34    3.3630E+01  8.4523E-03   3.3622E+01  0.000E+00  0.000E+00  0.000E+00  1.34134E+02  4.184E+00  8.738E+00  1.804E-03  8.294E-03  1.584E-04
   1    4   35     1    35    3.3622E+01  8.4504E-03   3.3613E+01  0.000E+00  0.000E+00  0.000E+00  1.33834E+02  4.184E+00  8.736E+00  1.804E-03  8.254E-03  1.964E-04
   1    4   36     1    36    3.3613E+01  8.4484E-03   3.3605E+01  0.000E+00  0.000E+00  0.000E+00  1.33534E+02  4.184E+00  8.735E+00  1.804E-03  8.209E-03  2.392E-04
   1    4   37     1    37    3.3605E+01  8.4465E-03   3.3596E+01  0.000E+00  0.000E+00  0.000E+00  1.33233E+02  4.183E+00  8.733E+00  1.804E-03  8.159E-03  2.873E-04
   1    4   38     1    38    3.3596E+01  8.4445E-03   3.3588E+01  0.000E+00  0.000E+00  0.000E+00  1.32933E+02  4.183E+00  8.731E+00  1.803E-03  8.103E-03  3.411E-04
   1    4   39     1    39    3.3588E+01  8.4426E-03   3.3579E+01  0.000E+00  0.000E+00  0.000E+00  1.32632E+02  4.182E+00  8.730E+00  1.803E-03  8.109E-03  3.338E-04
   1    4   40     1    40    3.3579E+01  8.4407E-03   3.3571E+01  0.000E+00  0.000E+00  0.000E+00  1.32332E+02  4.182E+00  8.728E+00  1.803E-03  8.116E-03  3.245E-04
   1    4   41     1    41    3.3571E+01  8.4387E-03   3.3562E+01  0.000E+00  0.000E+00  0.000E+00  1.32032E+02  4.182E+00  8.726E+00  1.803E-03  8.046E-03  3.924E-04
   1    4   42     1    42    3.3562E+01  8.4368E-03   3.3554E+01  0.000E+00  0.000E+00  0.000E+00  1.31731E+02  4.181E+00  8.725E+00  1.802E-03  7.956E-03  4.808E-04
   1    4   43     1    43    3.3554E+01  8.4348E-03   3.3546E+01  0.000E+00  0.000E+00  0.000E+00  1.31431E+02  4.181E+00  8.723E+00  1.802E-03  7.916E-03  5.186E-04
   1    4   44     1    44    3.3546E+01  8.4329E-03   3.3537E+01  0.000E+00  0.000E+00  0.000E+00  1.31130E+02  4.180E+00  8.721E+00  1.802E-03  7.903E-03  5.296E-04
   1    4   45     1    45    3.3537E+01  8.4309E-03   3.3529E+01  0.000E+00  0.000E+00  0.000E+00  1.30830E+02  4.180E+00  8.720E+00  1.802E-03  7.766E-03  6.649E-04
   1    4   46     1    46    3.3529E+01  8.4290E-03   3.3520E+01  0.000E+00  0.000E+00  0.000E+00  1.30530E+02  4.180E+00  8.718E+00  1.801E-03  7.716E-03  7.126E-04
   1    4   47     1    47    3.3520E+01  8.4271E-03   3.3512E+01  0.000E+00  0.000E+00  0.000E+00  1.30229E+02  4.179E+00  8.716E+00  1.801E-03  6.967E-03  1.460E-03
   1    4   48     1    48    3.3512E+01  8.4251E-03   3.3503E+01  0.000E+00  0.000E+00  0.000E+00  1.29929E+02  4.179E+00  8.715E+00  1.801E-03  6.749E-03  1.676E-03
   1    4   49     1    49    3.3503E+01  8.4232E-03   3.3495E+01  0.000E+00  0.000E+00  0.000E+00  1.29628E+02  4.178E+00  8.713E+00  1.800E-03  6.393E-03  2.030E-03
   1    4   50     1    50    3.3495E+01  8.4212E-03   3.3487E+01  0.000E+00  0.000E+00  0.000E+00  1.29328E+02  4.178E+00  8.712E+00  1.800E-03  5.695E-03  2.726E-03
   1    4   51     1    51    3.3487E+01  8.4193E-03   3.3478E+01  0.000E+00  0.000E+00  0.000E+00  1.29027E+02  4.177E+00  8.710E+00  1.800E-03  6.006E-03  2.413E-03
   1    4   52     1    52    3.3478E+01  8.4174E-03   3.3470E+01  0.000E+00  0.000E+00  0.000E+00  1.28727E+02  4.177E+00  8.708E+00  1.800E-03  6.115E-03  2.302E-03
   1    4   53     1    53    3.3470E+01  8.4154E-03   3.3461E+01  0.000E+00  0.000E+00  0.000E+00  1.28427E+02  4.177E+00  8.707E+00  1.799E-03  6.104E-03  2.311E-03
   1    4   54     1    54    3.3461E+01  8.4135E-03   3.3453E+01  0.000E+00  0.000E+00  0.000E+00  1.28126E+02  4.176E+00  8.705E+00  1.799E-03  5.968E-03  2.445E-03
   1    4   55     1    55    3.3453E+01  8.4115E-03   3.3444E+01  0.000E+00  0.000E+00  0.000E+00  1.27826E+02  4.176E+00  8.703E+00  1.799E-03  5.614E-03  2.797E-03
   1    4   56     1    56    3.3444E+01  8.4096E-03   3.3436E+01  0.000E+00  0.000E+00  0.000E+00  1.27525E+02  4.175E+00  8.702E+00  1.799E-03  6.330E-03  2.079E-03
   1    4   57     1    57    3.3436E+01  8.4077E-03   3.3428E+01  0.000E+00  0.000E+00  0.000E+00  1.27225E+02  4.175E+00  8.700E+00  1.798E-03  6.690E-03  1.718E-03
   1    4   58     1    58    3.3428E+01  8.4057E-03   3.3419E+01  0.000E+00  0.000E+00  0.000E+00  1.26925E+02  4.175E+00  8.698E+00  1.798E-03  6.905E-03  1.501E-03
   1    4   59     1    59    3.3419E+01  8.4038E-03   3.3411E+01  0.000E+00  0.000E+00  0.000E+00  1.26624E+02  4.174E+00  8.697E+00  1.798E-03  7.570E-03  8.336E-04
   1    4   60     1    60    3.3411E+01  8.4018E-03   3.3402E+01  0.000E+00  0.000E+00  0.000E+00  1.26324E+02  4.174E+00  8.695E+00  1.798E-03  7.656E-03  7.457E-04
   1    4   61     1    61    3.3402E+01  8.3999E-03   3.3394E+01  0.000E+00  0.000E+00  0.000E+00  1.26023E+02  4.173E+00  8.694E+00  1.797E-03  7.731E-03  6.694E-04
   1    4   62     1    62    3.3394E+01  8.3980E-03   3.3386E+01  0.000E+00  0.000E+00  0.000E+00  1.25723E+02  4.173E+00  8.692E+00  1.797E-03  7.727E-03  6.710E-04
   1    4   63     1    63    3.3386E+01  8.3960E-03   3.3377E+01  0.000E+00  0.000E+00  0.000E+00  1.25423E+02  4.173E+00  8.690E+00  1.797E-03  7.819E-03  5.770E-04
   1    4   64     1    64    3.3377E+01  8.3941E-03   3.3369E+01  0.000E+00  0.000E+00  0.000E+00  1.25122E+02  4.172E+00  8.689E+00  1.797E-03  7.890E-03  5.045E-04
   1    4   65     1    65    3.3369E+01  8.3922E-03   3.3360E+01  0.000E+00  0.000E+00  0.000E+00  1.24822E+02  4.172E+00  8.687E+00  1.796E-03  7.862E-03  5.304E-04
   1    4   66     1    66    3.3360E+01  8.3902E-03   3.3352E+01  0.000E+00  0.000E+00  0.000E+00  1.24521E+02  4.171E+00  8.685E+00  1.796E-03  7.879E-03  5.117E-04
   1    4   67     1    67    3.3352E+01  8.3883E-03   3.3344E+01  0.000E+00  0.000E+00  0.000E+00  1.24221E+02  4.171E+00  8.684E+00  1.796E-03  7.931E-03  4.576E-04
   1    4   68     1    68    3.3344E+01  8.3864E-03   3.3335E+01  0.000E+00  0.000E+00  0.000E+00  1.23921E+02  4.171E+00  8.682E+00  1.796E-03  7.976E-03  4.106E-04
   1    4   69     1    69    3.3335E+01  8.3844E-03   3.3327E+01  0.000E+00  0.000E+00  0.000E+00  1.23620E+02  4.170E+00  8.680E+00  1.795E-03  8.015E-03  3.696E-04
   1    4   70     1    70    3.3327E+01  8.3825E-03   3.3319E+01  0.000E+00  0.000E+00  0.000E+00  1.23320E+02  4.170E+00  8.679E+00  1.795E-03  7.996E-03  3.866E-04
   1    4   71     1    71    3.3319E+01  8.3806E-03   3.3310E+01  0.000E+00  0.000E+00  0.000E+00  1.23019E+02  4.169E+00  8.677E+00  1.795E-03  7.971E-03  4.100E-04
   1    4   72     1    72    3.3310E+01  8.3786E-03   3.3302E+01  0.000E+00  0.000E+00  0.000E+00  1.22719E+02  4.169E+00  8.675E+00  1.795E-03  7.979E-03  3.999E-04
   1    4   73     1    73    3.3302E+01  8.3767E-03   3.3293E+01  0.000E+00  0.000E+00  0.000E+00  1.22418E+02  4.168E+00  8.674E+00  1.794E-03  8.002E-03  3.752E-04
   1    4   74     1    74    3.3293E+01  8.3748E-03   3.3285E+01  0.000E+00  0.000E+00  0.000E+00  1.22118E+02  4.168E+00  8.672E+00  1.794E-03  8.022E-03  3.531E-04
   1    4   75     1    75    3.3285E+01  8.3728E-03   3.3277E+01  0.000E+00  0.000E+00  0.000E+00  1.21818E+02  4.168E+00  8.671E+00  1.794E-03  8.039E-03  3.336E-04
   1    4   76     1    76    3.3277E+01  8.3709E-03   3.3268E+01  0.000E+00  0.000E+00  0.000E+00  1.21517E+02  4.167E+00  8.669E+00  1.794E-03  8.055E-03  3.160E-04
   1    4   77     1    77    3.3268E+01  8.3690E-03   3.3260E+01  0.000E+00  0.000E+00  0.000E+00  1.21217E+02  4.167E+00  8.667E+00  1.793E-03  8.069E-03  2.999E-04
   1    4   78     1    78    3.3260E+01  8.3670E-03   3.3252E+01  0.000E+00  0.000E+00  0.000E+00  1.20916E+02  4.166E+00  8.666E+00  1.793E-03  8.082E-03  2.852E-04
   1    4   79     1    79    3.3252E+01  8.3651E-03   3.3243E+01  0.000E+00  0.000E+00  0.000E+00  1.20616E+02  4.166E+00  8.664E+00  1.793E-03  8.094E-03  2.714E-04
   1    4   80     1    80    3.3243E+01  8.3632E-03   3.3235E+01  0.000E+00  0.000E+00  0.000E+00  1.20316E+02  4.166E+00  8.662E+00  1.793E-03  8.105E-03  2.585E-04
   1    4   81     1    81    3.3235E+01  8.3612E-03   3.3226E+01  0.000E+00  0.000E+00  0.000E+00  1.20015E+02  4.165E+00  8.661E+00  1.792E-03  8.115E-03  2.462E-04
   1    4   82     1    82    3.3226E+01  8.3593E-03   3.3218E+01  0.000E+00  0.000E+00  0.000E+00  1.19715E+02  4.165E+00  8.659E+00  1.792E-03  8.125E-03  2.343E-04
   1    4   83     1    83    3.3218E+01  8.3574E-03   3.3210E+01  0.000E+00  0.000E+00  0.000E+00  1.19414E+02  4.164E+00  8.657E+00  1.792E-03  8.135E-03  2.229E-04
   1    4   84     1    84    3.3210E+01  8.3555E-03   3.3201E+01  0.000E+00  0.000E+00  0.000E+00  1.19114E+02  4.164E+00  8.656E+00  1.791E-03  8.144E-03  2.116E-04
   1    4   85     1    85    3.3201E+01  8.3535E-03   3.3193E+01  0.000E+00  0.000E+00  0.000E+00  1.18814E+02  4.164E+00  8.654E+00  1.791E-03  8.153E-03  2.005E-04
   1    4   86     1    86    3.3193E+01  8.3516E-03   3.3185E+01  0.000E+00  0.000E+00  0.000E+00  1.18513E+02  4.163E+00  8.653E+00  1.791E-03  8.162E-03  1.895E-04
   1    4   87     1    87    3.3185E+01  8.3497E-03   3.3176E+01  0.000E+00  0.000E+00  0.000E+00  1.18213E+02  4.163E+00  8.651E+00  1.791E-03  8.171E-03  1.785E-04
   1    4   88     1    88    3.3176E+01  8.3477E-03   3.3168E+01  0.000E+00  0.000E+00  0.000E+00  1.17912E+02  4.162E+00  8.649E+00  1.790E-03  8.180E-03  1.675E-04
   1    4   89     1    89    3.3168E+01  8.3458E-03   3.3160E+01  0.000E+00  0.000E+00  0.000E+00  1.17612E+02  4.162E+00  8.648E+00  1.790E-03  8.189E-03  1.564E-04
   1    4   90     1    90    3.3160E+01  8.3439E-03   3.3151E+01  0.000E+00  0.000E+00  0.000E+00  1.17312E+02  4.161E+00  8.646E+00  1.790E-03  8.199E-03  1.452E-04
   1    4   91     1    91    3.3151E+01  8.3420E-03   3.3143E+01  0.000E+00  0.000E+00  0.000E+00  1.17011E+02  4.161E+00  8.644E+00  1.790E-03  8.208E-03  1.338E-04
   1    4   92     1    92    3.3143E+01  8.3400E-03   3.3135E+01  0.000E+00  0.000E+00  0.000E+00  1.16711E+02  4.161E+00  8.643E+00  1.789E-03  8.218E-03  1.223E-04
   1    4   93     1    93    3.3135E+01  8.3381E-03   3.3126E+01  0.000E+00  0.000E+00  0.000E+00  1.16410E+02  4.160E+00  8.641E+00  1.789E-03  8.228E-03  1.104E-04
   1    4   94     1    94    3.3126E+01  8.3362E-03   3.3118E+01  0.000E+00  0.000E+00  0.000E+00  1.16110E+02  4.160E+00  8.639E+00  1.789E-03  8.244E-03  9.200E-05
   1    4   95     1    95    3.3118E+01  8.3343E-03   3.3110E+01  0.000E+00  0.000E+00  0.000E+00  1.15809E+02  4.159E+00  8.638E+00  1.789E-03  8.301E-03  3.350E-05
   1    4   96     1    96    3.3110E+01  8.3323E-03   3.3101E+01  0.000E+00  0.000E+00  0.000E+00  1.15509E+02  4.159E+00  8.636E+00  1.788E-03  8.362E-03 -2.962E-05
   1    4   97     1    97    3.3101E+01  8.3304E-03   3.3093E+01  0.000E+00  0.000E+00  0.000E+00  1.15209E+02  4.159E+00  8.635E+00  1.788E-03  8.403E-03 -7.248E-05
   1    4   98     1    98    3.3093E+01  8.3285E-03   3.3085E+01  0.000E+00  0.000E+00  0.000E+00  1.14908E+02  4.158E+00  8.633E+00  1.788E-03  8.418E-03 -8.902E-05
   1    4   99     1    99    3.3085E+01  8.3266E-03   3.3076E+01  0.000E+00  0.000E+00  0.000E+00  1.14608E+02  4.158E+00  8.631E+00  1.788E-03  8.433E-03 -1.067E-04
   1    4  100     1   100    3.3076E+01  8.3246E-03   3.3068E+01  0.000E+00  0.000E+00  0.000E+00  1.14307E+02  4.157E+00  8.630E+00  1.787E-03  8.450E-03 -1.258E-04



1
  VOLUMETRIC BUDGET FOR UNSATURATED ZONE BENEATH STREAMS AT END OF TIME STEP    30 STRESS PERIOD   8
  ------------------------------------------------------------------------------------------------

    CUMULATIVE VOLUMES             L**3    RATES FOR THIS TIME STEP         L**3/T
    ------------------                     ------------------------


          STREAM LOSS =     10492016.0000            STREAM LOSS =            0.8420
    CHANGE IN STORAGE =      1985551.2500      CHANGE IN STORAGE =        4.2883E-02
       RECHARGE TO GW =      8509379.0000         RECHARGE TO GW =            0.7992

             TOTAL IN =     10492016.0000               TOTAL IN =            0.8420

            TOTAL OUT =     10494930.0000              TOTAL OUT =            0.8420

             IN - OUT =        -2914.0000               IN - OUT =        1.7881E-07

  PERCENT DISCREPANCY =           -0.01      PERCENT DISCREPANCY =             0.00



1
  VOLUMETRIC BUDGET FOR ENTIRE MODEL AT END OF TIME STEP   30, STRESS PERIOD   8
  ------------------------------------------------------------------------------

     CUMULATIVE VOLUMES      L**3       RATES FOR THIS TIME STEP      L**3/T
     ------------------                 ------------------------

           IN:                                      IN:
           ---                                      ---
             STORAGE     =    48857588.0000               STORAGE     =           2.5485
       CONSTANT HEAD     =           0.0000         CONSTANT HEAD     =           0.0000
               WELLS     =           0.0000                 WELLS     =           0.0000
     HEAD DEP BOUNDS     =           0.0000       HEAD DEP BOUNDS     =           0.0000
      STREAM LEAKAGE     =     8509377.0000        STREAM LEAKAGE     =           0.7992

                TOTAL IN =    57366964.0000                  TOTAL IN =           3.3477

          OUT:                                     OUT:
          ----                                     ----
             STORAGE     =     1283814.5000               STORAGE     =       5.9578E-02
       CONSTANT HEAD     =           0.0000         CONSTANT HEAD     =           0.0000
               WELLS     =    45411840.0000                 WELLS     =           2.9800
     HEAD DEP BOUNDS     =    10671309.0000       HEAD DEP BOUNDS     =           0.3081
      STREAM LEAKAGE     =           0.0000        STREAM LEAKAGE     =           0.0000

               TOTAL OUT =    57366964.0000                 TOTAL OUT =           3.3477

                IN - OUT =           0.0000                  IN - OUT =           0.0000

     PERCENT DISCREPANCY =           0.00         PERCENT DISCREPANCY =           0.00






         TIME SUMMARY AT END OF TIME STEP   30 IN STRESS PERIOD    8
                    SECONDS     MINUTES      HOURS       DAYS        YEARS
                    -----------------------------------------------------------
   TIME STEP LENGTH 2.49961E+05  4166.0      69.434      2.8931     7.92080E-03
 STRESS PERIOD TIME 2.59200E+06  43200.      720.00      30.000     8.21355E-02
         TOTAL TIME 2.07360E+07 3.45600E+05  5760.0      240.00     0.65708    
1
1
                            STRESS PERIOD NO.    9, LENGTH =   2592000.    
                            -----------------------------------------------

                              NUMBER OF TIME STEPS =    30

                               MULTIPLIER FOR DELT =     1.100

                            INITIAL TIME STEP SIZE =   15757.40    

 REUSING NON-PARAMETER WELLS FROM LAST STRESS PERIOD

      1 WELL 

 REUSING NON-PARAMETER GHB CELLS FROM LAST STRESS PERIOD

      7 GHB CELLS



 CLASSIFICATION & COUNT OF STREAM SEGMENTS BASED ON SOURCE OF INFLOW:

                HEADWATER     DIVERSION     RECEIVES TRIBUTARY FLOW
                ---------     ---------     -----------------------
                     1              0               0



                    INPUT DATA FOR EACH STREAM SEGMENT
 ---------------------------------------------------------------------------------------------

 SEGMENT    SEG.     INFLOW   OVERLAND   STREAM    STREAM   ICALC  OUTFLOW  DIVERSION PRIORITY
    NO.    LENGTH     RATE     RUNOFF      ET       PPT.    METH.  TO SEG.  FROM SEG.    NO.

      1  2.000E+04 1.628E+01 0.000E+00 0.000E+00 0.000E+00    2        0        0        0


         STREAMBED PROPERTIES AND STREAM DIMENSIONS

 SEGMENT     BED HYD. COND.      BED THICKNESS     ELEV.-TOP OF BED     WIDTH OF STREAM     DEPTH OF STREAM    STREAM ROUGHNESS
    No.     UPPER     LOWER     UPPER     LOWER     UPPER     LOWER     UPPER     LOWER     UPPER     LOWER   CHANNEL      BANK

     1  3.500E-07 3.500E-07                                                                                 3.000E-02 4.000E-02

  EIGHT POINT CROSS-SECTION DATA FOR SEGMENTS WITH ICALC = 2
    X VALUES X VALUES START FROM LEFT SIDE LOOKING DOWNSTREAM

     SEGMENT NO.        X1        X2        X3        X4        X5        X6        X7        X8
            1      0.000E+00 2.000E+00 4.000E+00 6.000E+00 8.000E+00 1.000E+01 1.200E+01 1.400E+01

    Z VALUES ARE RELATIVE TO STREAMBED ELEVATION

     SEGMENT NO.          Z1        Z2        Z3        Z4        Z5        Z6        Z7        Z8
            1      6.000E+00 4.500E+00 3.500E+00 0.000E+00 3.000E-01 3.500E+00 4.500E+00 6.000E+00



 
 SOLVING FOR HEAD 
                                                   Max.-Head-Change                         Max.-Flux-Residual
  Residual-Control   Outer-Iter.   Inner-Iter.     Column Row Layer    Maximum-Head-Change  Column Row Layer    Maximum-Flux-Residual          L2-NORM 
          0                 1           2            55    5     1       0.8260701763E+00      50    3    1         0.2477595926E+00      0.3826337182E+00
          0                 2           2            55    5     1      -0.8091654029E-01      50    3    1        -0.2484793872E-01      0.3855853467E-01
          0                 3           2            55    5     1       0.7218695594E-02      50    3    1         0.2236646438E-02      0.3470664049E-02
          0                 4           2            55    5     1      -0.5729801618E-03      50    3    1        -0.1791534725E-03      0.2780099123E-03
          0                 5           1            55    5     1       0.3991437438E-04      50    3    1         0.1259432127E-04      0.1954379067E-04
          0                 6           1            55    5     1      -0.2396757503E-05      50    3    1        -0.7631656860E-06      0.1184276097E-05
          0                 7           1            55    5     1       0.1211048601E-06      50    3    1         0.3891383726E-07      0.6038630991E-07

    ------------------------------------------------
       NWT REQUIRED            7 OUTER ITERATIONS 
       AND A TOTAL OF         11 INNER ITERATIONS.
    ------------------------------------------------

 NO OUTPUT CONTROL FOR STRESS PERIOD    9   TIME STEP    1
 
 SOLVING FOR HEAD 
                                                   Max.-Head-Change                         Max.-Flux-Residual
  Residual-Control   Outer-Iter.   Inner-Iter.     Column Row Layer    Maximum-Head-Change  Column Row Layer    Maximum-Flux-Residual          L2-NORM 
          0                 1           2            55    5     1       0.6414907764E+00      55    5    1         0.1717909975E+00      0.2834089122E+00
          0                 2           2            55    5     1      -0.6155308181E-01      50    3    1        -0.1734149349E-01      0.2874066702E-01
          0                 3           2            55    5     1       0.5491630509E-02      50    3    1         0.1560371179E-02      0.2589692095E-02
          0                 4           2            55    5     1      -0.4358448790E-03      50    3    1        -0.1249859377E-03      0.2074592560E-03
          0                 5           1            55    5     1       0.3036194693E-04      50    3    1         0.8786387082E-05      0.1458418586E-04
          0                 6           1            55    5     1      -0.1823149499E-05      50    3    1        -0.5324191250E-06      0.8837426189E-06
          0                 7           1            55    5     1       0.9212139696E-07      50    3    1         0.2714803204E-07      0.4506206944E-07

    ------------------------------------------------
       NWT REQUIRED            7 OUTER ITERATIONS 
       AND A TOTAL OF         11 INNER ITERATIONS.
    ------------------------------------------------

 NO OUTPUT CONTROL FOR STRESS PERIOD    9   TIME STEP    2
 
 SOLVING FOR HEAD 
                                                   Max.-Head-Change                         Max.-Flux-Residual
  Residual-Control   Outer-Iter.   Inner-Iter.     Column Row Layer    Maximum-Head-Change  Column Row Layer    Maximum-Flux-Residual          L2-NORM 
          0                 1           2            55    5     1       0.5011978990E+00      55    5    1         0.1215959407E+00      0.2224214929E+00
          0                 2           2            55    5     1      -0.4728275970E-01      55    5    1        -0.1230587053E-01      0.2250706854E-01
          0                 3           2            55    5     1       0.4207575994E-02      55    5    1         0.1107063750E-02      0.2034801754E-02
          0                 4           2            55    5     1      -0.3339588189E-03      55    5    1        -0.8867920145E-04      0.1630468717E-03
          0                 5           1            55    5     1       0.2326428796E-04      55    5    1         0.6234047508E-05      0.1146210486E-04
          0                 6           1            55    5     1      -0.1396954860E-05      55    5    1        -0.3777586755E-06      0.6945562690E-06
          0                 7           1            55    5     1       0.7058631334E-07      55    5    1         0.1926195314E-07      0.3541538598E-07

    ------------------------------------------------
       NWT REQUIRED            7 OUTER ITERATIONS 
       AND A TOTAL OF         11 INNER ITERATIONS.
    ------------------------------------------------

 NO OUTPUT CONTROL FOR STRESS PERIOD    9   TIME STEP    3
 
 SOLVING FOR HEAD 
                                                   Max.-Head-Change                         Max.-Flux-Residual
  Residual-Control   Outer-Iter.   Inner-Iter.     Column Row Layer    Maximum-Head-Change  Column Row Layer    Maximum-Flux-Residual          L2-NORM 
          0                 1           2            55    5     1       0.3898419515E+00      55    5    1         0.8636088193E-01      0.1834454203E+00
          0                 2           2            55    5     1      -0.3633031460E-01      55    5    1        -0.8740765669E-02      0.1852699042E-01
          0                 3           2            55    5     1       0.3219166478E-02      55    5    1         0.7862576435E-03      0.1682639922E-02
          0                 4           2            55    5     1      -0.2554838037E-03      55    5    1        -0.6298195944E-04      0.1349042720E-03
          0                 5           1            55    5     1       0.1779739935E-04      55    5    1         0.4427556757E-05      0.9483989111E-05
          0                 6           1            55    5     1      -0.1068686254E-05      55    5    1        -0.2682926239E-06      0.5746880380E-06
          0                 7           1            55    5     1       0.5399928696E-07      55    5    1         0.1368026692E-07      0.2930321947E-07

    ------------------------------------------------
       NWT REQUIRED            7 OUTER ITERATIONS 
       AND A TOTAL OF         11 INNER ITERATIONS.
    ------------------------------------------------

 NO OUTPUT CONTROL FOR STRESS PERIOD    9   TIME STEP    4
 
 SOLVING FOR HEAD 
                                                   Max.-Head-Change                         Max.-Flux-Residual
  Residual-Control   Outer-Iter.   Inner-Iter.     Column Row Layer    Maximum-Head-Change  Column Row Layer    Maximum-Flux-Residual          L2-NORM 
          0                 1           2            55    5     1       0.2999359800E+00      55    5    1         0.6126534330E-01      0.1582775045E+00
          0                 2           2            55    5     1      -0.2777153700E-01      55    5    1        -0.6192119765E-02      0.1598469728E-01
          0                 3           2            55    5     1       0.2448199342E-02      55    5    1         0.5569951485E-03      0.1461071966E-02
          0                 4           2            55    5     1      -0.1941785989E-03      55    5    1        -0.4461711024E-04      0.1172746061E-03
          0                 5           1            55    5     1       0.1352723833E-04      55    5    1         0.3136541577E-05      0.8245630286E-05
          0                 6           1            55    5     1      -0.8122655816E-06      55    5    1        -0.1900620024E-06      0.4996478126E-06

    ------------------------------------------------
       NWT REQUIRED            6 OUTER ITERATIONS 
       AND A TOTAL OF         10 INNER ITERATIONS.
    ------------------------------------------------

 NO OUTPUT CONTROL FOR STRESS PERIOD    9   TIME STEP    5
 
 SOLVING FOR HEAD 
                                                   Max.-Head-Change                         Max.-Flux-Residual
  Residual-Control   Outer-Iter.   Inner-Iter.     Column Row Layer    Maximum-Head-Change  Column Row Layer    Maximum-Flux-Residual          L2-NORM 
          0                 1           2            55    5     1       0.2240855719E+00      55    5    1         0.4277621231E-01      0.1416752122E+00
          0                 2           2            55    5     1      -0.2076822502E-01      55    5    1        -0.4312923434E-02      0.1433129468E-01
          0                 3           2            55    5     1       0.1821183966E-02      55    5    1         0.3879844816E-03      0.1319797475E-02
          0                 4           2            55    5     1      -0.1442536584E-03      55    5    1        -0.3107855635E-04      0.1061326857E-03
          0                 5           1            55    5     1       0.1004921825E-04      55    5    1         0.2184791100E-05      0.7464269323E-05
          0                 6           1            55    5     1      -0.6034144010E-06      55    5    1        -0.1323895702E-06      0.4523048614E-06

    ------------------------------------------------
       NWT REQUIRED            6 OUTER ITERATIONS 
       AND A TOTAL OF         10 INNER ITERATIONS.
    ------------------------------------------------

 NO OUTPUT CONTROL FOR STRESS PERIOD    9   TIME STEP    6
 
 SOLVING FOR HEAD 
                                                   Max.-Head-Change                         Max.-Flux-Residual
  Residual-Control   Outer-Iter.   Inner-Iter.     Column Row Layer    Maximum-Head-Change  Column Row Layer    Maximum-Flux-Residual          L2-NORM 
          0                 1           2            55    5     1       0.1591893941E+00      55    5    1         0.2907304915E-01      0.1307531593E+00
          0                 2           2            55    5     1      -0.1494987679E-01      55    5    1        -0.2921751580E-02      0.1326156246E-01
          0                 3           2            55    5     1       0.1305368570E-02      55    5    1         0.2628727600E-03      0.1231140050E-02
          0                 4           1            55    5     1      -0.1031626470E-03      55    5    1        -0.2105653271E-04      0.9926518977E-04
          0                 5           1            55    5     1       0.7185185804E-05      55    5    1         0.1480251531E-05      0.6984696508E-05
          0                 6           1            55    5     1      -0.4314476886E-06      55    5    1        -0.8969766907E-07      0.4232569572E-06

    ------------------------------------------------
       NWT REQUIRED            6 OUTER ITERATIONS 
       AND A TOTAL OF          9 INNER ITERATIONS.
    ------------------------------------------------

 NO OUTPUT CONTROL FOR STRESS PERIOD    9   TIME STEP    7
 
 SOLVING FOR HEAD 
                                                   Max.-Head-Change                         Max.-Flux-Residual
  Residual-Control   Outer-Iter.   Inner-Iter.     Column Row Layer    Maximum-Head-Change  Column Row Layer    Maximum-Flux-Residual          L2-NORM 
          0                 1           2            53    1     1      -0.1515067897E+00      55    5    1         0.1882057682E-01      0.1235182960E+00
          0                 2           2            53    1     1       0.1476900153E-01      55    5    1        -0.1883573649E-02      0.1256298840E-01
          0                 3           2            53    1     1      -0.1314340668E-02      55    5    1         0.1695017967E-03      0.1175992127E-02
          0                 4           1            53    1     1       0.1043077366E-03      55    5    1        -0.1357715302E-04      0.9514057696E-04
          0                 5           1            53    1     1      -0.7266191606E-05      55    5    1         0.9544605926E-06      0.6699840653E-05
          0                 6           1            53    1     1       0.4363072119E-06      55    5    1        -0.5783702894E-07      0.4060341092E-06

    ------------------------------------------------
       NWT REQUIRED            6 OUTER ITERATIONS 
       AND A TOTAL OF          9 INNER ITERATIONS.
    ------------------------------------------------

 NO OUTPUT CONTROL FOR STRESS PERIOD    9   TIME STEP    8
 
 SOLVING FOR HEAD 
                                                   Max.-Head-Change                         Max.-Flux-Residual
  Residual-Control   Outer-Iter.   Inner-Iter.     Column Row Layer    Maximum-Head-Change  Column Row Layer    Maximum-Flux-Residual          L2-NORM 
          0                 1           2            53    1     1      -0.1614043044E+00      53    1    1        -0.1617371323E-01      0.1186239883E+00
          0                 2           2            53    1     1       0.1569438530E-01      53    1    1         0.1614818578E-02      0.1209547401E-01
          0                 3           2            53    1     1      -0.1395420567E-02      53    1    1        -0.1453744104E-03      0.1141796716E-02
          0                 4           2            53    1     1       0.1107222319E-03      53    1    1         0.1164414667E-04      0.9274651965E-04
          0                 5           1            53    1     1      -0.7713111188E-05      53    1    1        -0.8185744078E-06      0.6538989394E-05
          0                 6           1            53    1     1       0.4631388055E-06      53    1    1         0.4960236533E-07      0.3963615714E-06

    ------------------------------------------------
       NWT REQUIRED            6 OUTER ITERATIONS 
       AND A TOTAL OF         10 INNER ITERATIONS.
    ------------------------------------------------

 NO OUTPUT CONTROL FOR STRESS PERIOD    9   TIME STEP    9
 
 SOLVING FOR HEAD 
                                                   Max.-Head-Change                         Max.-Flux-Residual
  Residual-Control   Outer-Iter.   Inner-Iter.     Column Row Layer    Maximum-Head-Change  Column Row Layer    Maximum-Flux-Residual          L2-NORM 
          0                 1           2            53    1     1      -0.1711972620E+00      53    1    1        -0.1566763945E-01      0.1153147506E+00
          0                 2           2            53    1     1       0.1659998829E-01      53    1    1         0.1563769141E-02      0.1178001265E-01
          0                 3           2            53    1     1      -0.1474282613E-02      53    1    1        -0.1407869011E-03      0.1121380831E-02
          0                 4           2            53    1     1       0.1169467092E-03      53    1    1         0.1127662332E-04      0.9151838597E-04
          0                 5           1            53    1     1      -0.8146547075E-05      53    1    1        -0.7927382866E-06      0.6462477127E-05
          0                 6           1            53    1     1       0.4891593248E-06      53    1    1         0.4803679410E-07      0.3918500311E-06

    ------------------------------------------------
       NWT REQUIRED            6 OUTER ITERATIONS 
       AND A TOTAL OF         10 INNER ITERATIONS.
    ------------------------------------------------

 NO OUTPUT CONTROL FOR STRESS PERIOD    9   TIME STEP   10
 
 SOLVING FOR HEAD 
                                                   Max.-Head-Change                         Max.-Flux-Residual
  Residual-Control   Outer-Iter.   Inner-Iter.     Column Row Layer    Maximum-Head-Change  Column Row Layer    Maximum-Flux-Residual          L2-NORM 
          0                 1           2            53    1     1      -0.1809668431E+00      53    1    1        -0.1511149890E-01      0.1130383288E+00
          0                 2           2            53    1     1       0.1749286345E-01      53    1    1         0.1507800408E-02      0.1156380884E-01
          0                 3           2            53    1     1      -0.1551458428E-02      53    1    1        -0.1357560604E-03      0.1109881192E-02
          0                 4           2            53    1     1       0.1230192072E-03      53    1    1         0.1087359218E-04      0.9105373659E-04
          0                 5           1            53    1     1      -0.8569114326E-05      53    1    1        -0.7644059905E-06      0.6442549815E-05
          0                 6           1            53    1     1       0.5145241734E-06      53    1    1         0.4631996720E-07      0.3908322917E-06

    ------------------------------------------------
       NWT REQUIRED            6 OUTER ITERATIONS 
       AND A TOTAL OF         10 INNER ITERATIONS.
    ------------------------------------------------

 NO OUTPUT CONTROL FOR STRESS PERIOD    9   TIME STEP   11
 
 SOLVING FOR HEAD 
                                                   Max.-Head-Change                         Max.-Flux-Residual
  Residual-Control   Outer-Iter.   Inner-Iter.     Column Row Layer    Maximum-Head-Change  Column Row Layer    Maximum-Flux-Residual          L2-NORM 
          0                 1           2            53    1     1      -0.1908624994E+00      53    1    1        -0.1452591645E-01      0.1114606473E+00
          0                 2           2            53    1     1       0.1838659932E-01      53    1    1         0.1448991052E-02      0.1141175529E-01
          0                 3           2            53    1     1      -0.1628048296E-02      53    1    1        -0.1304688452E-03      0.1104030740E-02
          0                 4           2            53    1     1       0.1290211842E-03      53    1    1         0.1045002933E-04      0.9109022133E-04
          0                 5           1            53    1     1      -0.8986309021E-05      53    1    1        -0.7346303135E-06      0.6461395618E-05
          0                 6           1            53    1     1       0.5395603708E-06      53    1    1         0.4451567848E-07      0.3922546195E-06

    ------------------------------------------------
       NWT REQUIRED            6 OUTER ITERATIONS 
       AND A TOTAL OF         10 INNER ITERATIONS.
    ------------------------------------------------

 NO OUTPUT CONTROL FOR STRESS PERIOD    9   TIME STEP   12
 
 SOLVING FOR HEAD 
                                                   Max.-Head-Change                         Max.-Flux-Residual
  Residual-Control   Outer-Iter.   Inner-Iter.     Column Row Layer    Maximum-Head-Change  Column Row Layer    Maximum-Flux-Residual          L2-NORM 
          0                 1           2            53    1     1      -0.2010940819E+00      53    1    1        -0.1393190034E-01      0.1104564704E+00
          0                 2           2            53    1     1       0.1930052281E-01      53    1    1         0.1389446888E-02      0.1129960594E-01
          0                 3           2            53    1     1      -0.1705647366E-02      53    1    1        -0.1251147841E-03      0.1101523898E-02
          0                 4           2            53    1     1       0.1350721828E-03      59    4    1        -0.1048036015E-04      0.9145814022E-04
          0                 5           1            53    1     1      -0.9406227459E-05      59    4    1         0.7523144889E-06      0.6508022392E-05
          0                 6           1            53    1     1       0.5647489248E-06      59    4    1        -0.4562272515E-07      0.3955074227E-06

    ------------------------------------------------
       NWT REQUIRED            6 OUTER ITERATIONS 
       AND A TOTAL OF         10 INNER ITERATIONS.
    ------------------------------------------------

 NO OUTPUT CONTROL FOR STRESS PERIOD    9   TIME STEP   13
 
 SOLVING FOR HEAD 
                                                   Max.-Head-Change                         Max.-Flux-Residual
  Residual-Control   Outer-Iter.   Inner-Iter.     Column Row Layer    Maximum-Head-Change  Column Row Layer    Maximum-Flux-Residual          L2-NORM 
          0                 1           2            53    1     1      -0.2119214232E+00      53    1    1        -0.1334889288E-01      0.1100266100E+00
          0                 2           2            53    1     1       0.2025856492E-01      53    1    1         0.1331109160E-02      0.1123948044E-01
          0                 3           2            53    1     1      -0.1786240764E-02      53    1    1        -0.1198686969E-03      0.1103749954E-02
          0                 4           2            53    1     1       0.1413213165E-03      59    4    1        -0.1072591063E-04      0.9220992026E-04
          0                 5           1            53    1     1      -0.9838929785E-05      59    4    1         0.7793029591E-06      0.6583383166E-05
          0                 6           1            53    1     1       0.5906865785E-06      59    4    1        -0.4743645032E-07      0.4006051587E-06

    ------------------------------------------------
       NWT REQUIRED            6 OUTER ITERATIONS 
       AND A TOTAL OF         10 INNER ITERATIONS.
    ------------------------------------------------

 NO OUTPUT CONTROL FOR STRESS PERIOD    9   TIME STEP   14
 
 SOLVING FOR HEAD 
                                                   Max.-Head-Change                         Max.-Flux-Residual
  Residual-Control   Outer-Iter.   Inner-Iter.     Column Row Layer    Maximum-Head-Change  Column Row Layer    Maximum-Flux-Residual          L2-NORM 
          0                 1           2            53    1     1      -0.2236443692E+00      53    1    1        -0.1279343950E-01      0.1098909151E+00
          0                 2           2            53    1     1       0.2128817800E-01      53    1    1         0.1275625238E-02      0.1121814927E-01
          0                 3           2            53    1     1      -0.1872098956E-02      58    4    1         0.1200482298E-03      0.1109097782E-02
          0                 4           2            53    1     1       0.1479386365E-03      59    4    1        -0.1102851157E-04      0.9330605563E-04
          0                 5           1            53    1     1      -0.1029585118E-04      59    4    1         0.8077954812E-06      0.6690381577E-05
          0                 6           1            53    1     1       0.6180491952E-06      59    4    1        -0.4928932285E-07      0.4078730590E-06

    ------------------------------------------------
       NWT REQUIRED            6 OUTER ITERATIONS 
       AND A TOTAL OF         10 INNER ITERATIONS.
    ------------------------------------------------

 NO OUTPUT CONTROL FOR STRESS PERIOD    9   TIME STEP   15
 
 SOLVING FOR HEAD 
                                                   Max.-Head-Change                         Max.-Flux-Residual
  Residual-Control   Outer-Iter.   Inner-Iter.     Column Row Layer    Maximum-Head-Change  Column Row Layer    Maximum-Flux-Residual          L2-NORM 
          0                 1           2            55    5     1      -0.2682340810E+00      55    5    1        -0.1234185565E-01      0.1100169463E+00
          0                 2           2            53    1     1       0.2241943939E-01      53    1    1         0.1224285251E-02      0.1120880754E-01
          0                 3           2            53    1     1      -0.1965694938E-02      58    4    1         0.1212460452E-03      0.1115087992E-02
          0                 4           2            53    1     1       0.1551081916E-03      59    4    1        -0.1129375707E-04      0.9447318321E-04
          0                 5           1            53    1     1      -0.1078929145E-04      59    4    1         0.8342513365E-06      0.6805848241E-05
          0                 6           1            53    1     1       0.6475615223E-06      60    4    1        -0.5106886647E-07      0.4158197967E-06

    ------------------------------------------------
       NWT REQUIRED            6 OUTER ITERATIONS 
       AND A TOTAL OF         10 INNER ITERATIONS.
    ------------------------------------------------

 NO OUTPUT CONTROL FOR STRESS PERIOD    9   TIME STEP   16
 
 SOLVING FOR HEAD 
                                                   Max.-Head-Change                         Max.-Flux-Residual
  Residual-Control   Outer-Iter.   Inner-Iter.     Column Row Layer    Maximum-Head-Change  Column Row Layer    Maximum-Flux-Residual          L2-NORM 
          0                 1           2            55    5     1      -0.3198738172E+00      55    5    1        -0.1368217616E-01      0.1101538872E+00
          0                 2           2            53    1     1       0.2368421520E-01      55    5    1         0.1265052586E-02      0.1120740013E-01
          0                 3           2            53    1     1      -0.2069623264E-02      58    4    1         0.1224626322E-03      0.1121729702E-02
          0                 4           2            53    1     1       0.1630212355E-03      59    4    1        -0.1153253764E-04      0.9573719434E-04
          0                 5           1            53    1     1      -0.1133191755E-04      59    4    1         0.8593846905E-06      0.6933524342E-05
          0                 6           1            53    1     1       0.6799631604E-06      60    4    1        -0.5302094408E-07      0.4247872455E-06

    ------------------------------------------------
       NWT REQUIRED            6 OUTER ITERATIONS 
       AND A TOTAL OF         10 INNER ITERATIONS.
    ------------------------------------------------

 NO OUTPUT CONTROL FOR STRESS PERIOD    9   TIME STEP   17
 
 SOLVING FOR HEAD 
                                                   Max.-Head-Change                         Max.-Flux-Residual
  Residual-Control   Outer-Iter.   Inner-Iter.     Column Row Layer    Maximum-Head-Change  Column Row Layer    Maximum-Flux-Residual          L2-NORM 
          0                 1           2            55    5     1      -0.3758420993E+00      55    5    1        -0.1485783779E-01      0.1105375749E+00
          0                 2           2            55    5     1       0.2721900011E-01      55    5    1         0.1341315654E-02      0.1122117986E-01
          0                 3           2            53    1     1      -0.2186537332E-02      58    4    1         0.1218074272E-03      0.1129060420E-02
          0                 4           2            53    1     1       0.1718708343E-03      59    4    1        -0.1176817828E-04      0.9707538654E-04
          0                 5           1            53    1     1      -0.1193637051E-04      59    4    1         0.8846770996E-06      0.7070878578E-05
          0                 6           1            53    1     1       0.7159901667E-06      60    4    1        -0.5485594912E-07      0.4345939949E-06

    ------------------------------------------------
       NWT REQUIRED            6 OUTER ITERATIONS 
       AND A TOTAL OF         10 INNER ITERATIONS.
    ------------------------------------------------

 NO OUTPUT CONTROL FOR STRESS PERIOD    9   TIME STEP   18
 
 SOLVING FOR HEAD 
                                                   Max.-Head-Change                         Max.-Flux-Residual
  Residual-Control   Outer-Iter.   Inner-Iter.     Column Row Layer    Maximum-Head-Change  Column Row Layer    Maximum-Flux-Residual          L2-NORM 
          0                 1           3            55    5     1      -0.4362648253E+00      55    5    1        -0.1583594938E-01      0.1110820793E+00
          0                 2           2            55    5     1       0.3149893017E-01      55    5    1         0.1386852632E-02      0.1124456004E-01
          0                 3           2            55    5     1      -0.2350921880E-02      55    5    1        -0.1257501188E-03      0.1136752077E-02
          0                 4           2            53    7     1       0.1819940953E-03      59    4    1        -0.1198509079E-04      0.9844299133E-04
          0                 5           1            53    7     1      -0.1262589132E-04      59    4    1         0.9089577437E-06      0.7213338419E-05
          0                 6           1            53    7     1       0.7569945707E-06      60    4    1        -0.5663400771E-07      0.4449166065E-06

    ------------------------------------------------
       NWT REQUIRED            6 OUTER ITERATIONS 
       AND A TOTAL OF         11 INNER ITERATIONS.
    ------------------------------------------------

 NO OUTPUT CONTROL FOR STRESS PERIOD    9   TIME STEP   19
 
 SOLVING FOR HEAD 
                                                   Max.-Head-Change                         Max.-Flux-Residual
  Residual-Control   Outer-Iter.   Inner-Iter.     Column Row Layer    Maximum-Head-Change  Column Row Layer    Maximum-Flux-Residual          L2-NORM 
          0                 1           3            55    5     1      -0.5026138923E+00      55    5    1        -0.1670988913E-01      0.1116908746E+00
          0                 2           2            55    5     1       0.3610612506E-01      55    5    1         0.1407265657E-02      0.1128045744E-01
          0                 3           2            55    5     1      -0.2671471796E-02      55    5    1        -0.1278944817E-03      0.1145185303E-02
          0                 4           2            53    7     1       0.1947925685E-03      55    4    1        -0.1248774086E-04      0.9986140453E-04
          0                 5           1            53    7     1      -0.1349569835E-04      55    4    1         0.9369379119E-06      0.7361662248E-05
          0                 6           1            53    7     1       0.8086827216E-06      60    4    1        -0.5849055817E-07      0.4557602208E-06

    ------------------------------------------------
       NWT REQUIRED            6 OUTER ITERATIONS 
       AND A TOTAL OF         11 INNER ITERATIONS.
    ------------------------------------------------

 NO OUTPUT CONTROL FOR STRESS PERIOD    9   TIME STEP   20
 
 SOLVING FOR HEAD 
                                                   Max.-Head-Change                         Max.-Flux-Residual
  Residual-Control   Outer-Iter.   Inner-Iter.     Column Row Layer    Maximum-Head-Change  Column Row Layer    Maximum-Flux-Residual          L2-NORM 
          0                 1           3            55    5     1      -0.5763764227E+00      55    5    1        -0.1753140623E-01      0.1123703715E+00
          0                 2           2            55    5     1       0.4111140757E-01      55    5    1         0.1402857453E-02      0.1130829635E-01
          0                 3           2            55    5     1      -0.3015300922E-02      55    4    1         0.1319084629E-03      0.1151734239E-02
          0                 4           2            55    5     1       0.2141340492E-03      55    4    1        -0.1318950657E-04      0.1011062223E-03
          0                 5           1            54    7     1      -0.1464556266E-04      55    4    1         0.1001019012E-05      0.7500623621E-05
          0                 6           1            54    7     1       0.8769514931E-06      55    4    1        -0.6153718024E-07      0.4662657425E-06

    ------------------------------------------------
       NWT REQUIRED            6 OUTER ITERATIONS 
       AND A TOTAL OF         11 INNER ITERATIONS.
    ------------------------------------------------

 NO OUTPUT CONTROL FOR STRESS PERIOD    9   TIME STEP   21
 
 SOLVING FOR HEAD 
                                                   Max.-Head-Change                         Max.-Flux-Residual
  Residual-Control   Outer-Iter.   Inner-Iter.     Column Row Layer    Maximum-Head-Change  Column Row Layer    Maximum-Flux-Residual          L2-NORM 
          0                 1           3            55    5     1      -0.6584121466E+00      55    5    1        -0.1826486173E-01      0.1130535241E+00
          0                 2           2            55    5     1       0.4651557102E-01      55    5    1         0.1364893978E-02      0.1134014392E-01
          0                 3           2            55    5     1      -0.3380432310E-02      55    4    1         0.1353222092E-03      0.1158631198E-02
          0                 4           2            55    5     1       0.2369632942E-03      55    4    1        -0.1379561013E-04      0.1023644212E-03
          0                 5           1            55    6     1      -0.1615209755E-04      55    4    1         0.1059322805E-05      0.7640708406E-05
          0                 6           1            55    7     1       0.9617443693E-06      55    4    1        -0.6540101483E-07      0.4768514673E-06

    ------------------------------------------------
       NWT REQUIRED            6 OUTER ITERATIONS 
       AND A TOTAL OF         11 INNER ITERATIONS.
    ------------------------------------------------

 NO OUTPUT CONTROL FOR STRESS PERIOD    9   TIME STEP   22
 
 SOLVING FOR HEAD 
                                                   Max.-Head-Change                         Max.-Flux-Residual
  Residual-Control   Outer-Iter.   Inner-Iter.     Column Row Layer    Maximum-Head-Change  Column Row Layer    Maximum-Flux-Residual          L2-NORM 
          0                 1           3            55    5     1      -0.7517103118E+00      55    5    1        -0.1899964618E-01      0.1137370631E+00
          0                 2           2            55    5     1       0.5246945074E-01      55    6    1         0.1392333969E-02      0.1136893010E-01
          0                 3           2            55    5     1      -0.3776427887E-02      55    4    1         0.1376013091E-03      0.1164346810E-02
          0                 4           2            55    6     1       0.2630486561E-03      55    4    1        -0.1431432417E-04      0.1034825130E-03
          0                 5           1            55    6     1      -0.1786595985E-04      55    4    1         0.1112320449E-05      0.7771219534E-05
          0                 6           1            55    7     1       0.1065091827E-05      55    4    1        -0.6893961180E-07      0.4869295939E-06
          0                 7           1            55    7     1      -0.5370215380E-07      55    4    1         0.3530966963E-08      0.2522747877E-07

    ------------------------------------------------
       NWT REQUIRED            7 OUTER ITERATIONS 
       AND A TOTAL OF         12 INNER ITERATIONS.
    ------------------------------------------------

 NO OUTPUT CONTROL FOR STRESS PERIOD    9   TIME STEP   23
 
 SOLVING FOR HEAD 
                                                   Max.-Head-Change                         Max.-Flux-Residual
  Residual-Control   Outer-Iter.   Inner-Iter.     Column Row Layer    Maximum-Head-Change  Column Row Layer    Maximum-Flux-Residual          L2-NORM 
          0                 1           3            55    5     1      -0.8592228184E+00      55    5    1        -0.1971552816E-01      0.1144174392E+00
          0                 2           2            55    5     1       0.5907937811E-01      55    6    1         0.1475951870E-02      0.1139095351E-01
          0                 3           2            55    5     1      -0.4208859134E-02      55    4    1         0.1386811914E-03      0.1168494302E-02
          0                 4           2            55    6     1       0.2917516206E-03      55    4    1        -0.1475441736E-04      0.1044120709E-03
          0                 5           1            55    7     1      -0.1973604260E-04      55    4    1         0.1161135085E-05      0.7887073438E-05
          0                 6           1            55    7     1       0.1175550318E-05      55    4    1        -0.7220378118E-07      0.4960900173E-06
          0                 7           1            55    7     1      -0.5923397096E-07      55    4    1         0.3704353269E-08      0.2577782442E-07

    ------------------------------------------------
       NWT REQUIRED            7 OUTER ITERATIONS 
       AND A TOTAL OF         12 INNER ITERATIONS.
    ------------------------------------------------

 NO OUTPUT CONTROL FOR STRESS PERIOD    9   TIME STEP   24
 
 SOLVING FOR HEAD 
                                                   Max.-Head-Change                         Max.-Flux-Residual
  Residual-Control   Outer-Iter.   Inner-Iter.     Column Row Layer    Maximum-Head-Change  Column Row Layer    Maximum-Flux-Residual          L2-NORM 
          0                 1           3            55    5     1      -0.9871086442E+00      55    5    1        -0.2051902693E-01      0.1151759013E+00
          0                 2           2            55    5     1       0.6680065186E-01      55    6    1         0.1579901219E-02      0.1140402839E-01
          0                 3           2            55    5     1      -0.4707792931E-02      55    6    1        -0.1416381215E-03      0.1170089555E-02
          0                 4           2            55    6     1       0.3243257233E-03      55    4    1        -0.1505154063E-04      0.1051173906E-03
          0                 5           1            55    7     1      -0.2181655750E-04      55    4    1         0.1204022463E-05      0.7989891513E-05
          0                 6           1            55    7     1       0.1296439199E-05      55    4    1        -0.7519191608E-07      0.5045937479E-06
          0                 7           1            55    7     1      -0.6526589476E-07      50    4    1         0.3870560983E-08      0.2630415740E-07

    ------------------------------------------------
       NWT REQUIRED            7 OUTER ITERATIONS 
       AND A TOTAL OF         12 INNER ITERATIONS.
    ------------------------------------------------

 NO OUTPUT CONTROL FOR STRESS PERIOD    9   TIME STEP   25
 
 SOLVING FOR HEAD 
                                                   Max.-Head-Change                         Max.-Flux-Residual
  Residual-Control   Outer-Iter.   Inner-Iter.     Column Row Layer    Maximum-Head-Change  Column Row Layer    Maximum-Flux-Residual          L2-NORM 
          0                 1           3            55    5     1      -0.1145092669E+01      55    5    1        -0.2144474388E-01      0.1161451768E+00
          0                 2           2            55    5     1       0.7604796402E-01      55    6    1         0.1721454797E-02      0.1142726970E-01
          0                 3           2            55    5     1      -0.5322341689E-02      55    6    1        -0.1542193943E-03      0.1170368322E-02
          0                 4           2            55    6     1       0.3631473406E-03      55    4    1        -0.1446340942E-04      0.1056634479E-03
          0                 5           1            55    6     1      -0.2420579296E-04      55    4    1         0.1198466933E-05      0.8082770768E-05
          0                 6           1            55    7     1       0.1433158581E-05      50    4    1        -0.7626279119E-07      0.5126347991E-06
          0                 7           1            55    7     1      -0.7205413361E-07      50    4    1         0.4015540345E-08      0.2681696767E-07

    ------------------------------------------------
       NWT REQUIRED            7 OUTER ITERATIONS 
       AND A TOTAL OF         12 INNER ITERATIONS.
    ------------------------------------------------

 NO OUTPUT CONTROL FOR STRESS PERIOD    9   TIME STEP   26
 
 SOLVING FOR HEAD 
                                                   Max.-Head-Change                         Max.-Flux-Residual
  Residual-Control   Outer-Iter.   Inner-Iter.     Column Row Layer    Maximum-Head-Change  Column Row Layer    Maximum-Flux-Residual          L2-NORM 
          0                 1           3            55    5     1      -0.1329702024E+01      55    5    1        -0.2265656003E-01      0.1171057565E+00
          0                 2           3            55    5     1       0.8576041896E-01      55    6    1         0.1911764926E-02      0.1150907767E-01
          0                 3           2            55    5     1      -0.5950568296E-02      55    6    1        -0.1712452760E-03      0.1175376588E-02
          0                 4           2            55    6     1       0.4071860637E-03      54    4    1        -0.1396444898E-04      0.1064220292E-03
          0                 5           1            55    6     1      -0.2697464627E-04      55    4    1         0.1168798597E-05      0.8180692336E-05
          0                 6           1            55    7     1       0.1587548616E-05      50    4    1        -0.7699194660E-07      0.5205176790E-06
          0                 7           1            55    7     1      -0.7972920787E-07      50    4    1         0.4116958996E-08      0.2732047730E-07

    ------------------------------------------------
       NWT REQUIRED            7 OUTER ITERATIONS 
       AND A TOTAL OF         13 INNER ITERATIONS.
    ------------------------------------------------

 NO OUTPUT CONTROL FOR STRESS PERIOD    9   TIME STEP   27
 
 SOLVING FOR HEAD 
                                                   Max.-Head-Change                         Max.-Flux-Residual
  Residual-Control   Outer-Iter.   Inner-Iter.     Column Row Layer    Maximum-Head-Change  Column Row Layer    Maximum-Flux-Residual          L2-NORM 
          0                 1           3            55    5     1      -0.1540756065E+01      55    5    1        -0.2395309855E-01      0.1178343081E+00
          0                 2           3            55    5     1       0.9526567971E-01      55    6    1         0.2158743190E-02      0.1164480466E-01
          0                 3           2            55    5     1      -0.6503415649E-02      55    6    1        -0.1934970538E-03      0.1186155271E-02
          0                 4           2            55    6     1       0.4545151759E-03      55    6    1         0.1549265279E-04      0.1075941330E-03
          0                 5           1            55    6     1      -0.2996608542E-04      57    4    1         0.1224123797E-05      0.8297532631E-05
          0                 6           1            55    7     1       0.1755137548E-05      57    4    1        -0.7708938110E-07      0.5287920964E-06
          0                 7           1            55    7     1      -0.8811241103E-07      56    4    1         0.4175556789E-08      0.2782584301E-07

    ------------------------------------------------
       NWT REQUIRED            7 OUTER ITERATIONS 
       AND A TOTAL OF         13 INNER ITERATIONS.
    ------------------------------------------------

 NO OUTPUT CONTROL FOR STRESS PERIOD    9   TIME STEP   28
 
 SOLVING FOR HEAD 
                                                   Max.-Head-Change                         Max.-Flux-Residual
  Residual-Control   Outer-Iter.   Inner-Iter.     Column Row Layer    Maximum-Head-Change  Column Row Layer    Maximum-Flux-Residual          L2-NORM 
          0                 1           3            50    3     1      -0.1594248661E+01      55    5    1        -0.2529701111E-01      0.1184527081E+00
          0                 2           3            55    5     1       0.8190070411E+00      55    5    1        -0.9947037007E-01      0.1111413035E+00
          0                 3           2            55    5     1       0.6155364353E+00      55    5    1        -0.6084355828E-01      0.6707335514E-01
          0                 4           2            55    5     1       0.5172096633E+00      55    5    1        -0.4735546715E-01      0.5224813694E-01
          0                 5           1            55    5     1       0.4678619221E+00      55    5    1        -0.4016390398E-01      0.4430989485E-01
          0                 6           1            55    5     1       0.4431974081E+00      55    5    1        -0.3659865437E-01      0.4037683299E-01
          0                 7           1            55    5     1       0.4308647469E+00      55    5    1        -0.3481412836E-01      0.3840807228E-01
          0                 8           1            55    5     1       0.4246984345E+00      55    5    1        -0.3392197537E-01      0.3742382100E-01
          0                 9           1            55    5     1       0.4216152775E+00      55    5    1        -0.3347589325E-01      0.3693168873E-01
          0                10           1            55    5     1       0.4200736990E+00      55    5    1        -0.3325285244E-01      0.3668562289E-01
                                                   Max.-Head-Change                         Max.-Flux-Residual
  Residual-Control   Outer-Iter.   Inner-Iter.     Column Row Layer    Maximum-Head-Change  Column Row Layer    Maximum-Flux-Residual          L2-NORM 
          0                11           1            55    5     1       0.4193029098E+00      55    5    1        -0.3314133203E-01      0.3656258996E-01
          0                12           2            55    4     1       0.1200616673E+00      55    5    1         0.4303048457E+00      0.4305809257E+00
          0                13           2            55    3     1       0.1098774774E-02      55    5    1         0.5243348818E-01      0.5243377205E-01
          0                14           1            55    5     1       0.1254911295E-04      55    5    1         0.5870880889E-02      0.5870881101E-02
          0                15           1            55    5     1      -0.3380893468E-06      55    5    1        -0.1402259726E-03      0.1402259830E-03

    ------------------------------------------------
       NWT REQUIRED           15 OUTER ITERATIONS 
       AND A TOTAL OF         23 INNER ITERATIONS.
    ------------------------------------------------

 NO OUTPUT CONTROL FOR STRESS PERIOD    9   TIME STEP   29
 
 WELLS WITH REDUCED PUMPING FOR STRESS PERIOD     9 TIME STEP    29
   LAY   ROW   COL         APPL.Q          ACT.Q        GW-HEAD       CELL-BOT
     1     5    55  -0.121000E+01  -0.119099E+01   0.102760E-02   0.000000E+00
 
 
 SOLVING FOR HEAD 
                                                   Max.-Head-Change                         Max.-Flux-Residual
  Residual-Control   Outer-Iter.   Inner-Iter.     Column Row Layer    Maximum-Head-Change  Column Row Layer    Maximum-Flux-Residual          L2-NORM 
          0                 1           3            50    3     1      -0.1853458107E+01      50    3    1        -0.2379901929E-01      0.1167094676E+00
          0                 2           3            50    3     1       0.1069660879E+00      55    5    1         0.8885316734E-01      0.8959590452E-01
          0                 3           2            50    2     1      -0.7281124906E-02      55    5    1         0.2803380309E-02      0.3033641514E-02
          0                 4           2            50    2     1       0.5259063604E-03      55    5    1        -0.2343027573E-03      0.2567929508E-03
          0                 5           1            50    2     1      -0.3421613392E-04      55    5    1         0.1863899019E-04      0.2034588608E-04
          0                 6           1            50    1     1       0.1992991460E-05      55    5    1        -0.1295187004E-05      0.1396334465E-05
          0                 7           1            50    1     1      -0.9989207021E-07      55    5    1         0.7767284238E-07      0.8244317294E-07

    ------------------------------------------------
       NWT REQUIRED            7 OUTER ITERATIONS 
       AND A TOTAL OF         13 INNER ITERATIONS.
    ------------------------------------------------

 NO OUTPUT CONTROL FOR STRESS PERIOD    9   TIME STEP   30
 
 WELLS WITH REDUCED PUMPING FOR STRESS PERIOD     9 TIME STEP    30
   LAY   ROW   COL         APPL.Q          ACT.Q        GW-HEAD       CELL-BOT
     1     5    55  -0.121000E+01  -0.110912E+01   0.912928E-03   0.000000E+00
 



 STREAM LISTING     PERIOD      9   STEP       30

 LAYER ROW COL. STREAM  RCH.   FLOW INTO    STREAM     FLOW OUT OF   OVRLND.    DIRECT     STREAM      STREAM      STREAM     STREAM  STREAMBED   FLOW TO   CHNG. UNSAT. 
                SEG.NO.  NO.   STRM. RCH.    LOSS       STRM. RCH.   RUNOFF     PRECIP       ET         HEAD        DEPTH      WIDTH  CONDCTNC.   WAT. TAB.

   1    4    1     1     1    1.6280E+01  4.4112E-03   1.6276E+01  0.000E+00  0.000E+00  0.000E+00  1.42920E+02  3.070E+00  5.486E+00  1.236E-03  4.724E-03 -3.126E-04
   1    4    2     1     2    1.6276E+01  4.4102E-03   1.6271E+01  0.000E+00  0.000E+00  0.000E+00  1.42620E+02  3.070E+00  5.485E+00  1.235E-03  4.719E-03 -3.085E-04
   1    4    3     1     3    1.6271E+01  4.4092E-03   1.6267E+01  0.000E+00  0.000E+00  0.000E+00  1.42319E+02  3.069E+00  5.485E+00  1.235E-03  4.713E-03 -3.042E-04
   1    4    4     1     4    1.6267E+01  4.4082E-03   1.6262E+01  0.000E+00  0.000E+00  0.000E+00  1.42019E+02  3.069E+00  5.484E+00  1.235E-03  4.708E-03 -2.996E-04
   1    4    5     1     5    1.6262E+01  4.4072E-03   1.6258E+01  0.000E+00  0.000E+00  0.000E+00  1.41719E+02  3.069E+00  5.484E+00  1.235E-03  4.702E-03 -2.946E-04
   1    4    6     1     6    1.6258E+01  4.4062E-03   1.6254E+01  0.000E+00  0.000E+00  0.000E+00  1.41418E+02  3.068E+00  5.483E+00  1.235E-03  4.696E-03 -2.894E-04
   1    4    7     1     7    1.6254E+01  4.4053E-03   1.6249E+01  0.000E+00  0.000E+00  0.000E+00  1.41118E+02  3.068E+00  5.483E+00  1.235E-03  4.689E-03 -2.840E-04
   1    4    8     1     8    1.6249E+01  4.4043E-03   1.6245E+01  0.000E+00  0.000E+00  0.000E+00  1.40817E+02  3.067E+00  5.482E+00  1.235E-03  4.683E-03 -2.782E-04
   1    4    9     1     9    1.6245E+01  4.4033E-03   1.6240E+01  0.000E+00  0.000E+00  0.000E+00  1.40517E+02  3.067E+00  5.482E+00  1.234E-03  4.676E-03 -2.723E-04
   1    4   10     1    10    1.6240E+01  4.4023E-03   1.6236E+01  0.000E+00  0.000E+00  0.000E+00  1.40217E+02  3.067E+00  5.481E+00  1.234E-03  4.668E-03 -2.661E-04
   1    4   11     1    11    1.6236E+01  4.4013E-03   1.6232E+01  0.000E+00  0.000E+00  0.000E+00  1.39916E+02  3.066E+00  5.481E+00  1.234E-03  4.661E-03 -2.597E-04
   1    4   12     1    12    1.6232E+01  4.4003E-03   1.6227E+01  0.000E+00  0.000E+00  0.000E+00  1.39616E+02  3.066E+00  5.480E+00  1.234E-03  4.653E-03 -2.531E-04
   1    4   13     1    13    1.6227E+01  4.3994E-03   1.6223E+01  0.000E+00  0.000E+00  0.000E+00  1.39315E+02  3.065E+00  5.480E+00  1.234E-03  4.646E-03 -2.463E-04
   1    4   14     1    14    1.6223E+01  4.3984E-03   1.6218E+01  0.000E+00  0.000E+00  0.000E+00  1.39015E+02  3.065E+00  5.479E+00  1.234E-03  4.638E-03 -2.393E-04
   1    4   15     1    15    1.6218E+01  4.3974E-03   1.6214E+01  0.000E+00  0.000E+00  0.000E+00  1.38714E+02  3.064E+00  5.479E+00  1.234E-03  4.629E-03 -2.321E-04
   1    4   16     1    16    1.6214E+01  4.3964E-03   1.6210E+01  0.000E+00  0.000E+00  0.000E+00  1.38414E+02  3.064E+00  5.478E+00  1.234E-03  4.621E-03 -2.248E-04
   1    4   17     1    17    1.6210E+01  4.3954E-03   1.6205E+01  0.000E+00  0.000E+00  0.000E+00  1.38114E+02  3.064E+00  5.478E+00  1.233E-03  4.613E-03 -2.173E-04
   1    4   18     1    18    1.6205E+01  4.3944E-03   1.6201E+01  0.000E+00  0.000E+00  0.000E+00  1.37813E+02  3.063E+00  5.477E+00  1.233E-03  4.604E-03 -2.098E-04
   1    4   19     1    19    1.6201E+01  4.3935E-03   1.6196E+01  0.000E+00  0.000E+00  0.000E+00  1.37513E+02  3.063E+00  5.477E+00  1.233E-03  4.596E-03 -2.020E-04
   1    4   20     1    20    1.6196E+01  4.3925E-03   1.6192E+01  0.000E+00  0.000E+00  0.000E+00  1.37212E+02  3.062E+00  5.476E+00  1.233E-03  4.587E-03 -1.940E-04
   1    4   21     1    21    1.6192E+01  4.3915E-03   1.6188E+01  0.000E+00  0.000E+00  0.000E+00  1.36912E+02  3.062E+00  5.476E+00  1.233E-03  4.578E-03 -1.859E-04
   1    4   22     1    22    1.6188E+01  4.3905E-03   1.6183E+01  0.000E+00  0.000E+00  0.000E+00  1.36612E+02  3.062E+00  5.476E+00  1.233E-03  4.568E-03 -1.775E-04
   1    4   23     1    23    1.6183E+01  4.3895E-03   1.6179E+01  0.000E+00  0.000E+00  0.000E+00  1.36311E+02  3.061E+00  5.475E+00  1.233E-03  4.559E-03 -1.689E-04
   1    4   24     1    24    1.6179E+01  4.3886E-03   1.6174E+01  0.000E+00  0.000E+00  0.000E+00  1.36011E+02  3.061E+00  5.475E+00  1.232E-03  4.546E-03 -1.562E-04
   1    4   25     1    25    1.6174E+01  4.3876E-03   1.6170E+01  0.000E+00  0.000E+00  0.000E+00  1.35710E+02  3.060E+00  5.474E+00  1.232E-03  4.529E-03 -1.408E-04
   1    4   26     1    26    1.6170E+01  4.3866E-03   1.6166E+01  0.000E+00  0.000E+00  0.000E+00  1.35410E+02  3.060E+00  5.474E+00  1.232E-03  4.512E-03 -1.244E-04
   1    4   27     1    27    1.6166E+01  4.3856E-03   1.6161E+01  0.000E+00  0.000E+00  0.000E+00  1.35110E+02  3.060E+00  5.473E+00  1.232E-03  4.494E-03 -1.070E-04
   1    4   28     1    28    1.6161E+01  4.3846E-03   1.6157E+01  0.000E+00  0.000E+00  0.000E+00  1.34809E+02  3.059E+00  5.473E+00  1.232E-03  4.474E-03 -8.849E-05
   1    4   29     1    29    1.6157E+01  4.3837E-03   1.6152E+01  0.000E+00  0.000E+00  0.000E+00  1.34509E+02  3.059E+00  5.472E+00  1.232E-03  4.454E-03 -6.872E-05
   1    4   30     1    30    1.6152E+01  4.3827E-03   1.6148E+01  0.000E+00  0.000E+00  0.000E+00  1.34208E+02  3.058E+00  5.472E+00  1.232E-03  4.431E-03 -4.761E-05
   1    4   31     1    31    1.6148E+01  4.3817E-03   1.6144E+01  0.000E+00  0.000E+00  0.000E+00  1.33908E+02  3.058E+00  5.471E+00  1.232E-03  4.408E-03 -2.510E-05
   1    4   32     1    32    1.6144E+01  4.3807E-03   1.6139E+01  0.000E+00  0.000E+00  0.000E+00  1.33608E+02  3.058E+00  5.471E+00  1.231E-03  4.383E-03 -1.116E-06
   1    4   33     1    33    1.6139E+01  4.3797E-03   1.6135E+01  0.000E+00  0.000E+00  0.000E+00  1.33307E+02  3.057E+00  5.470E+00  1.231E-03  4.356E-03  2.439E-05
   1    4   34     1    34    1.6135E+01  4.3788E-03   1.6131E+01  0.000E+00  0.000E+00  0.000E+00  1.33007E+02  3.057E+00  5.470E+00  1.231E-03  4.328E-03  5.143E-05
   1    4   35     1    35    1.6131E+01  4.3778E-03   1.6126E+01  0.000E+00  0.000E+00  0.000E+00  1.32706E+02  3.056E+00  5.469E+00  1.231E-03  4.299E-03  7.997E-05
   1    4   36     1    36    1.6126E+01  4.3768E-03   1.6122E+01  0.000E+00  0.000E+00  0.000E+00  1.32406E+02  3.056E+00  5.469E+00  1.231E-03  4.268E-03  1.102E-04
   1    4   37     1    37    1.6122E+01  4.3758E-03   1.6117E+01  0.000E+00  0.000E+00  0.000E+00  1.32105E+02  3.055E+00  5.468E+00  1.231E-03  4.235E-03  1.420E-04
   1    4   38     1    38    1.6117E+01  4.3748E-03   1.6113E+01  0.000E+00  0.000E+00  0.000E+00  1.31805E+02  3.055E+00  5.468E+00  1.231E-03  4.223E-03  1.532E-04
   1    4   39     1    39    1.6113E+01  4.3739E-03   1.6109E+01  0.000E+00  0.000E+00  0.000E+00  1.31505E+02  3.055E+00  5.467E+00  1.230E-03  4.293E-03  8.232E-05
   1    4   40     1    40    1.6109E+01  4.3729E-03   1.6104E+01  0.000E+00  0.000E+00  0.000E+00  1.31204E+02  3.054E+00  5.467E+00  1.230E-03  4.354E-03  1.971E-05
   1    4   41     1    41    1.6104E+01  4.3719E-03   1.6100E+01  0.000E+00  0.000E+00  0.000E+00  1.30904E+02  3.054E+00  5.466E+00  1.230E-03  4.318E-03  5.548E-05
   1    4   42     1    42    1.6100E+01  4.3709E-03   1.6096E+01  0.000E+00  0.000E+00  0.000E+00  1.30603E+02  3.053E+00  5.466E+00  1.230E-03  4.280E-03  9.243E-05
   1    4   43     1    43    1.6096E+01  4.3699E-03   1.6091E+01  0.000E+00  0.000E+00  0.000E+00  1.30303E+02  3.053E+00  5.465E+00  1.230E-03  4.240E-03  1.315E-04
   1    4   44     1    44    1.6091E+01  4.3690E-03   1.6087E+01  0.000E+00  0.000E+00  0.000E+00  1.30003E+02  3.053E+00  5.465E+00  1.230E-03  4.259E-03  1.111E-04
   1    4   45     1    45    1.6087E+01  4.3680E-03   1.6082E+01  0.000E+00  0.000E+00  0.000E+00  1.29702E+02  3.052E+00  5.464E+00  1.230E-03  4.406E-03 -3.648E-05
   1    4   46     1    46    1.6082E+01  4.3670E-03   1.6078E+01  0.000E+00  0.000E+00  0.000E+00  1.29402E+02  3.052E+00  5.464E+00  1.230E-03  4.491E-03 -1.226E-04
   1    4   47     1    47    1.6078E+01  4.3660E-03   1.6074E+01  0.000E+00  0.000E+00  0.000E+00  1.29101E+02  3.051E+00  5.463E+00  1.229E-03  4.417E-03 -4.995E-05
   1    4   48     1    48    1.6074E+01  4.3651E-03   1.6069E+01  0.000E+00  0.000E+00  0.000E+00  1.28801E+02  3.051E+00  5.463E+00  1.229E-03  4.572E-03 -2.062E-04
   1    4   49     1    49    1.6069E+01  4.3641E-03   1.6065E+01  0.000E+00  0.000E+00  0.000E+00  1.28501E+02  3.051E+00  5.462E+00  1.229E-03  4.228E-03  1.372E-04
   1    4   50     1    50    1.6065E+01  4.3631E-03   1.6061E+01  0.000E+00  0.000E+00  0.000E+00  1.28200E+02  3.050E+00  5.462E+00  1.229E-03  4.160E-03  2.041E-04
   1    4   51     1    51    1.6061E+01  4.3621E-03   1.6056E+01  0.000E+00  0.000E+00  0.000E+00  1.27900E+02  3.050E+00  5.461E+00  1.229E-03  4.371E-03 -7.572E-06
   1    4   52     1    52    1.6056E+01  4.3612E-03   1.6052E+01  0.000E+00  0.000E+00  0.000E+00  1.27599E+02  3.049E+00  5.461E+00  1.229E-03  4.400E-03 -3.802E-05
   1    4   53     1    53    1.6052E+01  4.3602E-03   1.6048E+01  0.000E+00  0.000E+00  0.000E+00  1.27299E+02  3.049E+00  5.460E+00  1.229E-03  4.438E-03 -7.640E-05
   1    4   54     1    54    1.6048E+01  4.3592E-03   1.6043E+01  0.000E+00  0.000E+00  0.000E+00  1.26999E+02  3.049E+00  5.460E+00  1.228E-03  4.584E-03 -2.236E-04
   1    4   55     1    55    1.6043E+01  4.3582E-03   1.6039E+01  0.000E+00  0.000E+00  0.000E+00  1.26698E+02  3.048E+00  5.459E+00  1.228E-03  5.009E-03 -6.502E-04
   1    4   56     1    56    1.6039E+01  4.3573E-03   1.6034E+01  0.000E+00  0.000E+00  0.000E+00  1.26398E+02  3.048E+00  5.459E+00  1.228E-03  4.455E-03 -9.687E-05
   1    4   57     1    57    1.6034E+01  4.3563E-03   1.6030E+01  0.000E+00  0.000E+00  0.000E+00  1.26097E+02  3.047E+00  5.458E+00  1.228E-03  4.559E-03 -2.012E-04
   1    4   58     1    58    1.6030E+01  4.3553E-03   1.6026E+01  0.000E+00  0.000E+00  0.000E+00  1.25797E+02  3.047E+00  5.458E+00  1.228E-03  4.372E-03 -1.618E-05
   1    4   59     1    59    1.6026E+01  4.3543E-03   1.6021E+01  0.000E+00  0.000E+00  0.000E+00  1.25496E+02  3.046E+00  5.457E+00  1.228E-03  4.412E-03 -5.709E-05
   1    4   60     1    60    1.6021E+01  4.3534E-03   1.6017E+01  0.000E+00  0.000E+00  0.000E+00  1.25196E+02  3.046E+00  5.457E+00  1.228E-03  4.218E-03  1.367E-04
   1    4   61     1    61    1.6017E+01  4.3524E-03   1.6013E+01  0.000E+00  0.000E+00  0.000E+00  1.24896E+02  3.046E+00  5.456E+00  1.228E-03  4.096E-03  2.575E-04
   1    4   62     1    62    1.6013E+01  4.3514E-03   1.6008E+01  0.000E+00  0.000E+00  0.000E+00  1.24595E+02  3.045E+00  5.456E+00  1.227E-03  4.128E-03  2.245E-04
   1    4   63     1    63    1.6008E+01  4.3504E-03   1.6004E+01  0.000E+00  0.000E+00  0.000E+00  1.24295E+02  3.045E+00  5.455E+00  1.227E-03  4.158E-03  1.939E-04
   1    4   64     1    64    1.6004E+01  4.3495E-03   1.6000E+01  0.000E+00  0.000E+00  0.000E+00  1.23994E+02  3.044E+00  5.455E+00  1.227E-03  4.174E-03  1.769E-04
   1    4   65     1    65    1.6000E+01  4.3485E-03   1.5995E+01  0.000E+00  0.000E+00  0.000E+00  1.23694E+02  3.044E+00  5.454E+00  1.227E-03  4.057E-03  2.927E-04
   1    4   66     1    66    1.5995E+01  4.3475E-03   1.5991E+01  0.000E+00  0.000E+00  0.000E+00  1.23394E+02  3.044E+00  5.454E+00  1.227E-03  4.025E-03  3.240E-04
   1    4   67     1    67    1.5991E+01  4.3465E-03   1.5987E+01  0.000E+00  0.000E+00  0.000E+00  1.23093E+02  3.043E+00  5.453E+00  1.227E-03  4.051E-03  2.963E-04
   1    4   68     1    68    1.5987E+01  4.3456E-03   1.5982E+01  0.000E+00  0.000E+00  0.000E+00  1.22793E+02  3.043E+00  5.453E+00  1.227E-03  4.076E-03  2.701E-04
   1    4   69     1    69    1.5982E+01  4.3446E-03   1.5978E+01  0.000E+00  0.000E+00  0.000E+00  1.22492E+02  3.042E+00  5.453E+00  1.226E-03  4.100E-03  2.451E-04
   1    4   70     1    70    1.5978E+01  4.3436E-03   1.5974E+01  0.000E+00  0.000E+00  0.000E+00  1.22192E+02  3.042E+00  5.452E+00  1.226E-03  4.123E-03  2.215E-04
   1    4   71     1    71    1.5974E+01  4.3426E-03   1.5969E+01  0.000E+00  0.000E+00  0.000E+00  1.21892E+02  3.042E+00  5.452E+00  1.226E-03  4.144E-03  1.993E-04
   1    4   72     1    72    1.5969E+01  4.3417E-03   1.5965E+01  0.000E+00  0.000E+00  0.000E+00  1.21591E+02  3.041E+00  5.451E+00  1.226E-03  4.164E-03  1.786E-04
   1    4   73     1    73    1.5965E+01  4.3407E-03   1.5961E+01  0.000E+00  0.000E+00  0.000E+00  1.21291E+02  3.041E+00  5.451E+00  1.226E-03  4.182E-03  1.592E-04
   1    4   74     1    74    1.5961E+01  4.3397E-03   1.5956E+01  0.000E+00  0.000E+00  0.000E+00  1.20990E+02  3.040E+00  5.450E+00  1.226E-03  4.199E-03  1.412E-04
   1    4   75     1    75    1.5956E+01  4.3387E-03   1.5952E+01  0.000E+00  0.000E+00  0.000E+00  1.20690E+02  3.040E+00  5.450E+00  1.226E-03  4.215E-03  1.246E-04
   1    4   76     1    76    1.5952E+01  4.3378E-03   1.5948E+01  0.000E+00  0.000E+00  0.000E+00  1.20390E+02  3.040E+00  5.449E+00  1.226E-03  4.230E-03  1.091E-04
   1    4   77     1    77    1.5948E+01  4.3368E-03   1.5943E+01  0.000E+00  0.000E+00  0.000E+00  1.20089E+02  3.039E+00  5.449E+00  1.225E-03  4.243E-03  9.463E-05
   1    4   78     1    78    1.5943E+01  4.3358E-03   1.5939E+01  0.000E+00  0.000E+00  0.000E+00  1.19789E+02  3.039E+00  5.448E+00  1.225E-03  4.255E-03  8.117E-05
   1    4   79     1    79    1.5939E+01  4.3349E-03   1.5935E+01  0.000E+00  0.000E+00  0.000E+00  1.19488E+02  3.038E+00  5.448E+00  1.225E-03  4.264E-03  7.161E-05
   1    4   80     1    80    1.5935E+01  4.3339E-03   1.5930E+01  0.000E+00  0.000E+00  0.000E+00  1.19188E+02  3.038E+00  5.447E+00  1.225E-03  4.271E-03  6.355E-05
   1    4   81     1    81    1.5930E+01  4.3329E-03   1.5926E+01  0.000E+00  0.000E+00  0.000E+00  1.18887E+02  3.037E+00  5.447E+00  1.225E-03  4.278E-03  5.507E-05
   1    4   82     1    82    1.5926E+01  4.3320E-03   1.5922E+01  0.000E+00  0.000E+00  0.000E+00  1.18587E+02  3.037E+00  5.446E+00  1.225E-03  4.286E-03  4.610E-05
   1    4   83     1    83    1.5922E+01  4.3310E-03   1.5917E+01  0.000E+00  0.000E+00  0.000E+00  1.18287E+02  3.037E+00  5.446E+00  1.225E-03  4.295E-03  3.658E-05
   1    4   84     1    84    1.5917E+01  4.3300E-03   1.5913E+01  0.000E+00  0.000E+00  0.000E+00  1.17986E+02  3.036E+00  5.445E+00  1.224E-03  4.304E-03  2.644E-05
   1    4   85     1    85    1.5913E+01  4.3290E-03   1.5909E+01  0.000E+00  0.000E+00  0.000E+00  1.17686E+02  3.036E+00  5.445E+00  1.224E-03  4.314E-03  1.558E-05
   1    4   86     1    86    1.5909E+01  4.3281E-03   1.5904E+01  0.000E+00  0.000E+00  0.000E+00  1.17385E+02  3.035E+00  5.444E+00  1.224E-03  4.324E-03  3.906E-06
   1    4   87     1    87    1.5904E+01  4.3271E-03   1.5900E+01  0.000E+00  0.000E+00  0.000E+00  1.17085E+02  3.035E+00  5.444E+00  1.224E-03  4.336E-03 -8.666E-06
   1    4   88     1    88    1.5900E+01  4.3261E-03   1.5896E+01  0.000E+00  0.000E+00  0.000E+00  1.16785E+02  3.035E+00  5.443E+00  1.224E-03  4.347E-03 -2.044E-05
   1    4   89     1    89    1.5896E+01  4.3252E-03   1.5891E+01  0.000E+00  0.000E+00  0.000E+00  1.16484E+02  3.034E+00  5.443E+00  1.224E-03  4.356E-03 -2.985E-05
   1    4   90     1    90    1.5891E+01  4.3242E-03   1.5887E+01  0.000E+00  0.000E+00  0.000E+00  1.16184E+02  3.034E+00  5.442E+00  1.224E-03  4.365E-03 -3.965E-05
   1    4   91     1    91    1.5887E+01  4.3232E-03   1.5883E+01  0.000E+00  0.000E+00  0.000E+00  1.15883E+02  3.033E+00  5.442E+00  1.224E-03  4.374E-03 -5.022E-05
   1    4   92     1    92    1.5883E+01  4.3223E-03   1.5878E+01  0.000E+00  0.000E+00  0.000E+00  1.15583E+02  3.033E+00  5.441E+00  1.223E-03  4.385E-03 -6.157E-05
   1    4   93     1    93    1.5878E+01  4.3213E-03   1.5874E+01  0.000E+00  0.000E+00  0.000E+00  1.15283E+02  3.033E+00  5.441E+00  1.223E-03  4.396E-03 -7.389E-05
   1    4   94     1    94    1.5874E+01  4.3203E-03   1.5870E+01  0.000E+00  0.000E+00  0.000E+00  1.14982E+02  3.032E+00  5.440E+00  1.223E-03  4.409E-03 -8.740E-05
   1    4   95     1    95    1.5870E+01  4.3193E-03   1.5865E+01  0.000E+00  0.000E+00  0.000E+00  1.14682E+02  3.032E+00  5.440E+00  1.223E-03  4.422E-03 -1.023E-04
   1    4   96     1    96    1.5865E+01  4.3184E-03   1.5861E+01  0.000E+00  0.000E+00  0.000E+00  1.14381E+02  3.031E+00  5.439E+00  1.223E-03  4.438E-03 -1.188E-04
   1    4   97     1    97    1.5861E+01  4.3174E-03   1.5857E+01  0.000E+00  0.000E+00  0.000E+00  1.14081E+02  3.031E+00  5.439E+00  1.223E-03  4.455E-03 -1.369E-04
   1    4   98     1    98    1.5857E+01  4.3164E-03   1.5852E+01  0.000E+00  0.000E+00  0.000E+00  1.13781E+02  3.031E+00  5.438E+00  1.223E-03  4.474E-03 -1.567E-04
   1    4   99     1    99    1.5852E+01  4.3155E-03   1.5848E+01  0.000E+00  0.000E+00  0.000E+00  1.13480E+02  3.030E+00  5.438E+00  1.222E-03  4.495E-03 -1.782E-04
   1    4  100     1   100    1.5848E+01  4.3145E-03   1.5844E+01  0.000E+00  0.000E+00  0.000E+00  1.13180E+02  3.030E+00  5.437E+00  1.222E-03  4.516E-03 -2.012E-04



1
  VOLUMETRIC BUDGET FOR UNSATURATED ZONE BENEATH STREAMS AT END OF TIME STEP    30 STRESS PERIOD   9
  ------------------------------------------------------------------------------------------------

    CUMULATIVE VOLUMES             L**3    RATES FOR THIS TIME STEP         L**3/T
    ------------------                     ------------------------


          STREAM LOSS =     11622821.0000            STREAM LOSS =            0.4363
    CHANGE IN STORAGE =      1672911.8750      CHANGE IN STORAGE =       -4.0869E-03
       RECHARGE TO GW =      9953082.0000         RECHARGE TO GW =            0.4404

             TOTAL IN =     11622821.0000               TOTAL IN =            0.4404

            TOTAL OUT =     11625994.0000              TOTAL OUT =            0.4404

             IN - OUT =        -3173.0000               IN - OUT =       -7.0989E-05

  PERCENT DISCREPANCY =           -0.01      PERCENT DISCREPANCY =            -0.00



1
  VOLUMETRIC BUDGET FOR ENTIRE MODEL AT END OF TIME STEP   30, STRESS PERIOD   9
  ------------------------------------------------------------------------------

     CUMULATIVE VOLUMES      L**3       RATES FOR THIS TIME STEP      L**3/T
     ------------------                 ------------------------

           IN:                                      IN:
           ---                                      ---
             STORAGE     =    54472312.0000               STORAGE     =           2.1504
       CONSTANT HEAD     =           0.0000         CONSTANT HEAD     =           0.0000
               WELLS     =           0.0000                 WELLS     =           0.0000
     HEAD DEP BOUNDS     =           0.0000       HEAD DEP BOUNDS     =           0.0000
      STREAM LEAKAGE     =     9953087.0000        STREAM LEAKAGE     =           0.4404

                TOTAL IN =    64425400.0000                  TOTAL IN =           2.5908

          OUT:                                     OUT:
          ----                                     ----
             STORAGE     =     1351721.3750               STORAGE     =       5.3456E-04
       CONSTANT HEAD     =           0.0000         CONSTANT HEAD     =           0.0000
               WELLS     =    51654944.0000                 WELLS     =           2.3191
     HEAD DEP BOUNDS     =    11418726.0000       HEAD DEP BOUNDS     =           0.2711
      STREAM LEAKAGE     =           0.0000        STREAM LEAKAGE     =           0.0000

               TOTAL OUT =    64425392.0000                 TOTAL OUT =           2.5908

                IN - OUT =           8.0000                  IN - OUT =           0.0000

     PERCENT DISCREPANCY =           0.00         PERCENT DISCREPANCY =           0.00






         TIME SUMMARY AT END OF TIME STEP   30 IN STRESS PERIOD    9
                    SECONDS     MINUTES      HOURS       DAYS        YEARS
                    -----------------------------------------------------------
   TIME STEP LENGTH 2.49961E+05  4166.0      69.434      2.8931     7.92080E-03
 STRESS PERIOD TIME 2.59200E+06  43200.      720.00      30.000     8.21355E-02
         TOTAL TIME 2.33280E+07 3.88800E+05  6480.0      270.00     0.73922    
1
1
                            STRESS PERIOD NO.   10, LENGTH =   2592000.    
                            -----------------------------------------------

                              NUMBER OF TIME STEPS =    30

                               MULTIPLIER FOR DELT =     1.100

                            INITIAL TIME STEP SIZE =   15757.40    

 REUSING NON-PARAMETER WELLS FROM LAST STRESS PERIOD

      1 WELL 

 REUSING NON-PARAMETER GHB CELLS FROM LAST STRESS PERIOD

      7 GHB CELLS



 CLASSIFICATION & COUNT OF STREAM SEGMENTS BASED ON SOURCE OF INFLOW:

                HEADWATER     DIVERSION     RECEIVES TRIBUTARY FLOW
                ---------     ---------     -----------------------
                     1              0               0



                    INPUT DATA FOR EACH STREAM SEGMENT
 ---------------------------------------------------------------------------------------------

 SEGMENT    SEG.     INFLOW   OVERLAND   STREAM    STREAM   ICALC  OUTFLOW  DIVERSION PRIORITY
    NO.    LENGTH     RATE     RUNOFF      ET       PPT.    METH.  TO SEG.  FROM SEG.    NO.

      1  2.000E+04 1.134E+01 0.000E+00 0.000E+00 0.000E+00    2        0        0        0


         STREAMBED PROPERTIES AND STREAM DIMENSIONS

 SEGMENT     BED HYD. COND.      BED THICKNESS     ELEV.-TOP OF BED     WIDTH OF STREAM     DEPTH OF STREAM    STREAM ROUGHNESS
    No.     UPPER     LOWER     UPPER     LOWER     UPPER     LOWER     UPPER     LOWER     UPPER     LOWER   CHANNEL      BANK

     1  3.500E-07 3.500E-07                                                                                 3.000E-02 4.000E-02

  EIGHT POINT CROSS-SECTION DATA FOR SEGMENTS WITH ICALC = 2
    X VALUES X VALUES START FROM LEFT SIDE LOOKING DOWNSTREAM

     SEGMENT NO.        X1        X2        X3        X4        X5        X6        X7        X8
            1      0.000E+00 2.000E+00 4.000E+00 6.000E+00 8.000E+00 1.000E+01 1.200E+01 1.400E+01

    Z VALUES ARE RELATIVE TO STREAMBED ELEVATION

     SEGMENT NO.          Z1        Z2        Z3        Z4        Z5        Z6        Z7        Z8
            1      6.000E+00 4.500E+00 3.500E+00 0.000E+00 3.000E-01 3.500E+00 4.500E+00 6.000E+00



 
 SOLVING FOR HEAD 
                                                   Max.-Head-Change                         Max.-Flux-Residual
  Residual-Control   Outer-Iter.   Inner-Iter.     Column Row Layer    Maximum-Head-Change  Column Row Layer    Maximum-Flux-Residual          L2-NORM 
          0                 1           2            50    3     1       0.1705771285E+01      50    3    1         0.4546643521E+00      0.6417148897E+00
          0                 2           2            55    5     1       0.1439320237E+01      55    5    1         0.3749714109E+00      0.3779894430E+00
          0                 3           2            55    5     1      -0.1413122171E+00      55    5    1        -0.3838542566E-01      0.3890513421E-01
          0                 4           2            55    5     1       0.1266206396E-01      55    5    1         0.3457896892E-02      0.3492549206E-02
          0                 5           1            55    5     1      -0.1004383413E-02      55    5    1        -0.2773540101E-03      0.2799475019E-03
          0                 6           1            55    5     1       0.6997581727E-04      55    5    1         0.1952413687E-04      0.1969198896E-04
          0                 7           1            55    5     1      -0.4201734418E-05      55    5    1        -0.1184640935E-05      0.1194258961E-05
          0                 8           1            55    5     1       0.2123098957E-06      55    5    1         0.6048406687E-07      0.6095858803E-07

    ------------------------------------------------
       NWT REQUIRED            8 OUTER ITERATIONS 
       AND A TOTAL OF         12 INNER ITERATIONS.
    ------------------------------------------------

 NO OUTPUT CONTROL FOR STRESS PERIOD   10   TIME STEP    1
 
 SOLVING FOR HEAD 
                                                   Max.-Head-Change                         Max.-Flux-Residual
  Residual-Control   Outer-Iter.   Inner-Iter.     Column Row Layer    Maximum-Head-Change  Column Row Layer    Maximum-Flux-Residual          L2-NORM 
          0                 1           2            50    3     1       0.1478986660E+01      50    3    1         0.3545903778E+00      0.4764162848E+00
          0                 2           2            50    3     1      -0.1442004085E+00      50    3    1        -0.3658514565E-01      0.4924389973E-01
          0                 3           2            50    3     1       0.1288437332E-01      50    3    1         0.3290142170E-02      0.4428290094E-02
          0                 4           2            50    3     1      -0.1022780872E-02      50    3    1        -0.2635721681E-03      0.3548123096E-03
          0                 5           1            50    3     1       0.7124826952E-04      50    3    1         0.1852867398E-04      0.2494316923E-04
          0                 6           1            50    3     1      -0.4278254838E-05      50    3    1        -0.1122764305E-05      0.1511448292E-05
          0                 7           1            50    3     1       0.2161746324E-06      50    3    1         0.5724981611E-07      0.7707014408E-07

    ------------------------------------------------
       NWT REQUIRED            7 OUTER ITERATIONS 
       AND A TOTAL OF         11 INNER ITERATIONS.
    ------------------------------------------------

 NO OUTPUT CONTROL FOR STRESS PERIOD   10   TIME STEP    2
 
 SOLVING FOR HEAD 
                                                   Max.-Head-Change                         Max.-Flux-Residual
  Residual-Control   Outer-Iter.   Inner-Iter.     Column Row Layer    Maximum-Head-Change  Column Row Layer    Maximum-Flux-Residual          L2-NORM 
          0                 1           2            50    3     1       0.1291494208E+01      50    3    1         0.2797617784E+00      0.3860098320E+00
          0                 2           2            50    3     1      -0.1246335654E+00      50    3    1        -0.2914965366E-01      0.4002368207E-01
          0                 3           2            50    3     1       0.1111451176E-01      50    3    1         0.2619417467E-02      0.3601892883E-02
          0                 4           2            50    3     1      -0.8823139491E-03      50    3    1        -0.2098509169E-03      0.2886831427E-03
          0                 5           1            50    3     1       0.6146231656E-04      50    3    1         0.1475205372E-04      0.2029580464E-04
          0                 6           1            50    3     1      -0.3690633486E-05      50    3    1        -0.8939155907E-06      0.1229856051E-05
          0                 7           1            50    3     1       0.1864826879E-06      50    3    1         0.4558076300E-07      0.6271037918E-07

    ------------------------------------------------
       NWT REQUIRED            7 OUTER ITERATIONS 
       AND A TOTAL OF         11 INNER ITERATIONS.
    ------------------------------------------------

 NO OUTPUT CONTROL FOR STRESS PERIOD   10   TIME STEP    3
 
 SOLVING FOR HEAD 
                                                   Max.-Head-Change                         Max.-Flux-Residual
  Residual-Control   Outer-Iter.   Inner-Iter.     Column Row Layer    Maximum-Head-Change  Column Row Layer    Maximum-Flux-Residual          L2-NORM 
          0                 1           2            50    3     1       0.1132165173E+01      50    3    1         0.2222151864E+00      0.3180858911E+00
          0                 2           2            50    3     1      -0.1080820257E+00      50    3    1        -0.2329555484E-01      0.3291260078E-01
          0                 3           2            50    3     1       0.9606256415E-02      50    3    1         0.2092063632E-02      0.2968246702E-02
          0                 4           2            50    3     1      -0.7625751455E-03      50    3    1        -0.1676086583E-03      0.2380112782E-03
          0                 5           1            50    3     1       0.5312116908E-04      50    3    1         0.1178250998E-04      0.1673540346E-04
          0                 6           1            50    3     1      -0.3189777082E-05      50    3    1        -0.7139724398E-06      0.1014125695E-05
          0                 7           1            50    3     1       0.1611746104E-06      50    3    1         0.3640538154E-07      0.5171024553E-07

    ------------------------------------------------
       NWT REQUIRED            7 OUTER ITERATIONS 
       AND A TOTAL OF         11 INNER ITERATIONS.
    ------------------------------------------------

 NO OUTPUT CONTROL FOR STRESS PERIOD   10   TIME STEP    4
 
 SOLVING FOR HEAD 
                                                   Max.-Head-Change                         Max.-Flux-Residual
  Residual-Control   Outer-Iter.   Inner-Iter.     Column Row Layer    Maximum-Head-Change  Column Row Layer    Maximum-Flux-Residual          L2-NORM 
          0                 1           2            50    3     1       0.9954557503E+00      50    3    1         0.1773548938E+00      0.2659700426E+00
          0                 2           2            50    3     1      -0.9417594976E-01      50    3    1        -0.1865927464E-01      0.2737587572E-01
          0                 3           2            50    3     1       0.8318911212E-02      50    3    1         0.1674860191E-02      0.2479184811E-02
          0                 4           2            50    3     1      -0.6601077800E-03      50    3    1        -0.1341868411E-03      0.1989939320E-03
          0                 5           1            50    3     1       0.4598393193E-04      50    3    1         0.9433014424E-05      0.1399526000E-04
          0                 6           1            50    3     1      -0.2761182752E-05      50    3    1        -0.5716007311E-06      0.8481205200E-06
          0                 7           1            50    3     1       0.1395182372E-06      50    3    1         0.2914576608E-07      0.4324565675E-07

    ------------------------------------------------
       NWT REQUIRED            7 OUTER ITERATIONS 
       AND A TOTAL OF         11 INNER ITERATIONS.
    ------------------------------------------------

 NO OUTPUT CONTROL FOR STRESS PERIOD   10   TIME STEP    5
 
 SOLVING FOR HEAD 
                                                   Max.-Head-Change                         Max.-Flux-Residual
  Residual-Control   Outer-Iter.   Inner-Iter.     Column Row Layer    Maximum-Head-Change  Column Row Layer    Maximum-Flux-Residual          L2-NORM 
          0                 1           2            50    3     1       0.8761655564E+00      50    3    1         0.1418138102E+00      0.2251950932E+00
          0                 2           2            50    3     1      -0.8201653616E-01      50    3    1        -0.1494639312E-01      0.2304917479E-01
          0                 3           2            50    3     1       0.7206083912E-02      50    3    1         0.1341191967E-02      0.2097169972E-02
          0                 4           2            50    3     1      -0.5713687703E-03      50    3    1        -0.1074551398E-03      0.1686127090E-03
          0                 5           1            50    3     1       0.3980209404E-04      50    3    1         0.7553834204E-05      0.1186404697E-04
          0                 6           1            50    3     1      -0.2389968000E-05      50    3    1        -0.4577277100E-06      0.7190544369E-06
          0                 7           1            50    3     1       0.1207606037E-06      50    3    1         0.2333925508E-07      0.3666624403E-07

    ------------------------------------------------
       NWT REQUIRED            7 OUTER ITERATIONS 
       AND A TOTAL OF         11 INNER ITERATIONS.
    ------------------------------------------------

 NO OUTPUT CONTROL FOR STRESS PERIOD   10   TIME STEP    6
 
 SOLVING FOR HEAD 
                                                   Max.-Head-Change                         Max.-Flux-Residual
  Residual-Control   Outer-Iter.   Inner-Iter.     Column Row Layer    Maximum-Head-Change  Column Row Layer    Maximum-Flux-Residual          L2-NORM 
          0                 1           2            50    3     1       0.7729501357E+00      50    3    1         0.1135990521E+00      0.1932421552E+00
          0                 2           2            50    3     1      -0.7157360934E-01      50    3    1        -0.1197989277E-01      0.1966519870E-01
          0                 3           2            50    3     1       0.6250243694E-02      50    3    1         0.1074786404E-02      0.1799567126E-02
          0                 4           2            50    3     1      -0.4949406860E-03      50    3    1        -0.8611118045E-04      0.1450621457E-03
          0                 5           1            50    3     1       0.3447546819E-04      50    3    1         0.6053406990E-05      0.1021533410E-04
          0                 6           1            50    3     1      -0.2070116937E-05      50    3    1        -0.3668049374E-06      0.6192484350E-06
          0                 7           1            50    3     1       0.1045977509E-06      50    3    1         0.1870293165E-07      0.3157627287E-07

    ------------------------------------------------
       NWT REQUIRED            7 OUTER ITERATIONS 
       AND A TOTAL OF         11 INNER ITERATIONS.
    ------------------------------------------------

 NO OUTPUT CONTROL FOR STRESS PERIOD   10   TIME STEP    7
 
 SOLVING FOR HEAD 
                                                   Max.-Head-Change                         Max.-Flux-Residual
  Residual-Control   Outer-Iter.   Inner-Iter.     Column Row Layer    Maximum-Head-Change  Column Row Layer    Maximum-Flux-Residual          L2-NORM 
          0                 1           2            50    3     1       0.6837836500E+00      50    3    1         0.9123624934E-01      0.1681080816E+00
          0                 2           2            50    3     1      -0.6266501183E-01      50    3    1        -0.9618942908E-02      0.1702230722E-01
          0                 3           2            50    3     1       0.5436148275E-02      50    3    1         0.8628782450E-03      0.1567991315E-02
          0                 4           2            50    3     1      -0.4296662945E-03      50    3    1        -0.6913296913E-04      0.1268669497E-03
          0                 5           1            50    3     1       0.2992225024E-04      50    3    1         0.4859884108E-05      0.8946646446E-05
          0                 6           1            50    3     1      -0.1796702312E-05      50    3    1        -0.2944788987E-06      0.5425675720E-06
          0                 7           1            50    3     1       0.9078107963E-07      50    3    1         0.1501481839E-07      0.2766845583E-07

    ------------------------------------------------
       NWT REQUIRED            7 OUTER ITERATIONS 
       AND A TOTAL OF         11 INNER ITERATIONS.
    ------------------------------------------------

 NO OUTPUT CONTROL FOR STRESS PERIOD   10   TIME STEP    8
 
 SOLVING FOR HEAD 
                                                   Max.-Head-Change                         Max.-Flux-Residual
  Residual-Control   Outer-Iter.   Inner-Iter.     Column Row Layer    Maximum-Head-Change  Column Row Layer    Maximum-Flux-Residual          L2-NORM 
          0                 1           2            50    3     1       0.6062123251E+00      50    3    1         0.7337951688E-01      0.1481567080E+00
          0                 2           2            50    3     1      -0.5501343467E-01      50    3    1        -0.7729574151E-02      0.1494047708E-01
          0                 3           2            50    3     1       0.4738947360E-02      50    3    1         0.6933656207E-03      0.1386313067E-02
          0                 4           2            50    3     1      -0.3736255809E-03      50    3    1        -0.5555129356E-04      0.1127187154E-03
          0                 5           1            50    3     1       0.2600800812E-04      50    3    1         0.3905129802E-05      0.7966022036E-05
          0                 6           1            50    3     1      -0.1561622042E-05      50    3    1        -0.2366198453E-06      0.4834416952E-06
          0                 7           1            50    3     1       0.7890110940E-07      50    3    1         0.1206433786E-07      0.2465770069E-07

    ------------------------------------------------
       NWT REQUIRED            7 OUTER ITERATIONS 
       AND A TOTAL OF         11 INNER ITERATIONS.
    ------------------------------------------------

 NO OUTPUT CONTROL FOR STRESS PERIOD   10   TIME STEP    9
 
 SOLVING FOR HEAD 
                                                   Max.-Head-Change                         Max.-Flux-Residual
  Residual-Control   Outer-Iter.   Inner-Iter.     Column Row Layer    Maximum-Head-Change  Column Row Layer    Maximum-Flux-Residual          L2-NORM 
          0                 1           2            50    3     1       0.5395097363E+00      50    3    1         0.5921144517E-01      0.1323158907E+00
          0                 2           2            50    3     1      -0.4852623924E-01      50    3    1        -0.6229694197E-02      0.1330723230E-01
          0                 3           2            50    3     1       0.4149593796E-02      50    3    1         0.5588299918E-03      0.1244402828E-02
          0                 4           2            50    3     1      -0.3261232508E-03      50    3    1        -0.4477199984E-04      0.1017932770E-03
          0                 5           1            50    3     1       0.2268426497E-04      50    3    1         0.3147375236E-05      0.7215713390E-05
          0                 6           1            50    3     1      -0.1361933362E-05      50    3    1        -0.1906971929E-06      0.4384003153E-06
          0                 7           1            50    3     1       0.6880957516E-07      50    3    1         0.9722471161E-08      0.2236719858E-07

    ------------------------------------------------
       NWT REQUIRED            7 OUTER ITERATIONS 
       AND A TOTAL OF         11 INNER ITERATIONS.
    ------------------------------------------------

 NO OUTPUT CONTROL FOR STRESS PERIOD   10   TIME STEP   10
 
 SOLVING FOR HEAD 
                                                   Max.-Head-Change                         Max.-Flux-Residual
  Residual-Control   Outer-Iter.   Inner-Iter.     Column Row Layer    Maximum-Head-Change  Column Row Layer    Maximum-Flux-Residual          L2-NORM 
          0                 1           2            50    3     1       0.4821655366E+00      50    3    1         0.4797346108E-01      0.1196347468E+00
          0                 2           2            50    3     1      -0.4303008195E-01      50    3    1        -0.5040488524E-02      0.1201307454E-01
          0                 3           2            50    3     1       0.3652482272E-02      50    3    1         0.4521746206E-03      0.1132547845E-02
          0                 4           2            50    3     1      -0.2859752303E-03      50    3    1        -0.3622657939E-04      0.9329794917E-04
          0                 5           1            50    3     1       0.1986898224E-04      50    3    1         0.2546655216E-05      0.6639753173E-05
          0                 6           1            50    3     1      -0.1192655635E-05      50    3    1        -0.1542896602E-06      0.4040718954E-06
          0                 7           1            50    3     1       0.6025437189E-07      50    3    1         0.7865752050E-08      0.2062555525E-07

    ------------------------------------------------
       NWT REQUIRED            7 OUTER ITERATIONS 
       AND A TOTAL OF         11 INNER ITERATIONS.
    ------------------------------------------------

 NO OUTPUT CONTROL FOR STRESS PERIOD   10   TIME STEP   11
 
 SOLVING FOR HEAD 
                                                   Max.-Head-Change                         Max.-Flux-Residual
  Residual-Control   Outer-Iter.   Inner-Iter.     Column Row Layer    Maximum-Head-Change  Column Row Layer    Maximum-Flux-Residual          L2-NORM 
          0                 1           2            50    3     1       0.4323893700E+00      50    3    1         0.3896267884E-01      0.1093460773E+00
          0                 2           2            50    3     1      -0.3829878015E-01      50    3    1        -0.4088196508E-02      0.1096804740E-01
          0                 3           2            50    3     1       0.3226535272E-02      50    3    1         0.3667711333E-03      0.1042773497E-02
          0                 4           2            50    3     1      -0.2515262269E-03      50    3    1        -0.2938396709E-04      0.8659065888E-04
          0                 5           1            50    3     1       0.1744812811E-04      50    3    1         0.2065637286E-05      0.6192824872E-05
          0                 6           1            50    3     1      -0.1046929624E-05      50    3    1        -0.1251347373E-06      0.3777330486E-06
          0                 7           1            50    3     1       0.5288810454E-07      50    3    1         0.6378809925E-08      0.1929579944E-07

    ------------------------------------------------
       NWT REQUIRED            7 OUTER ITERATIONS 
       AND A TOTAL OF         11 INNER ITERATIONS.
    ------------------------------------------------

 NO OUTPUT CONTROL FOR STRESS PERIOD   10   TIME STEP   12
 
 SOLVING FOR HEAD 
                                                   Max.-Head-Change                         Max.-Flux-Residual
  Residual-Control   Outer-Iter.   Inner-Iter.     Column Row Layer    Maximum-Head-Change  Column Row Layer    Maximum-Flux-Residual          L2-NORM 
          0                 1           2            50    3     1       0.3895227263E+00      50    3    1         0.3179377435E-01      0.1009706070E+00
          0                 2           2            50    3     1      -0.3427319031E-01      50    3    1        -0.3331945832E-02      0.1012203506E-01
          0                 3           2            50    3     1       0.2865820562E-02      50    3    1         0.2989439213E-03      0.9704998554E-03
          0                 4           2            50    3     1      -0.2223089468E-03      50    3    1        -0.2394968871E-04      0.8129679453E-04
          0                 5           1            50    3     1       0.1538938482E-04      50    3    1         0.1683620690E-05      0.5848622448E-05
          0                 6           1            50    3     1      -0.9227923767E-06      50    3    1        -0.1019780735E-06      0.3578170405E-06

    ------------------------------------------------
       NWT REQUIRED            6 OUTER ITERATIONS 
       AND A TOTAL OF         10 INNER ITERATIONS.
    ------------------------------------------------

 NO OUTPUT CONTROL FOR STRESS PERIOD   10   TIME STEP   13
 
 SOLVING FOR HEAD 
                                                   Max.-Head-Change                         Max.-Flux-Residual
  Residual-Control   Outer-Iter.   Inner-Iter.     Column Row Layer    Maximum-Head-Change  Column Row Layer    Maximum-Flux-Residual          L2-NORM 
          0                 1           2            50    3     1       0.3523874974E+00      50    3    1         0.2607315573E-01      0.9409443636E-01
          0                 2           2            50    3     1      -0.3082389410E-01      50    3    1        -0.2729693176E-02      0.9431054740E-02
          0                 3           2            50    3     1       0.2558285883E-02      50    3    1         0.2449218941E-03      0.9120294549E-03
          0                 4           2            50    3     1      -0.1973745888E-03      50    3    1        -0.1962157154E-04      0.7710488606E-04
          0                 5           1            50    3     1       0.1362743831E-04      50    3    1         0.1379363731E-05      0.5583703539E-05
          0                 6           1            50    3     1      -0.8163168459E-06      50    3    1        -0.8353256953E-07      0.3428521279E-06

    ------------------------------------------------
       NWT REQUIRED            6 OUTER ITERATIONS 
       AND A TOTAL OF         10 INNER ITERATIONS.
    ------------------------------------------------

 NO OUTPUT CONTROL FOR STRESS PERIOD   10   TIME STEP   14
 
 SOLVING FOR HEAD 
                                                   Max.-Head-Change                         Max.-Flux-Residual
  Residual-Control   Outer-Iter.   Inner-Iter.     Column Row Layer    Maximum-Head-Change  Column Row Layer    Maximum-Flux-Residual          L2-NORM 
          0                 1           2            50    3     1       0.3194441807E+00      50    3    1         0.2143531746E-01      0.8844347791E-01
          0                 2           2            50    3     1      -0.2779356034E-01      50    3    1        -0.2242270784E-02      0.8856461675E-02
          0                 3           2            50    3     1       0.2289658129E-02      50    3    1         0.2011948556E-03      0.8634739134E-03
          0                 4           2            50    3     1      -0.1755969203E-03      50    3    1        -0.1611833866E-04      0.7370010208E-04
          0                 5           1            50    3     1       0.1208470062E-04      50    3    1         0.1133093646E-05      0.5376595790E-05
          0                 6           1            50    3     1      -0.7228526706E-06      50    3    1        -0.6860006163E-07      0.3315933421E-06

    ------------------------------------------------
       NWT REQUIRED            6 OUTER ITERATIONS 
       AND A TOTAL OF         10 INNER ITERATIONS.
    ------------------------------------------------

 NO OUTPUT CONTROL FOR STRESS PERIOD   10   TIME STEP   15
 
 SOLVING FOR HEAD 
                                                   Max.-Head-Change                         Max.-Flux-Residual
  Residual-Control   Outer-Iter.   Inner-Iter.     Column Row Layer    Maximum-Head-Change  Column Row Layer    Maximum-Flux-Residual          L2-NORM 
          0                 1           2            50    3     1       0.2899157668E+00      50    3    1         0.1767204113E-01      0.8385942963E-01
          0                 2           2            50    3     1      -0.2511404463E-01      50    3    1        -0.1847298777E-02      0.8385475006E-02
          0                 3           2            50    3     1       0.2053781137E-02      50    3    1         0.1657569889E-03      0.8238302466E-03
          0                 4           2            50    3     1      -0.1564819646E-03      50    3    1        -0.1327926267E-04      0.7100466396E-04
          0                 5           1            50    3     1       0.1072704483E-04      50    3    1         0.9335118986E-06      0.5221430432E-05
          0                 6           1            50    3     1      -0.6403545562E-06      50    3    1        -0.5649608614E-07      0.3236563370E-06

    ------------------------------------------------
       NWT REQUIRED            6 OUTER ITERATIONS 
       AND A TOTAL OF         10 INNER ITERATIONS.
    ------------------------------------------------

 NO OUTPUT CONTROL FOR STRESS PERIOD   10   TIME STEP   16
 
 SOLVING FOR HEAD 
                                                   Max.-Head-Change                         Max.-Flux-Residual
  Residual-Control   Outer-Iter.   Inner-Iter.     Column Row Layer    Maximum-Head-Change  Column Row Layer    Maximum-Flux-Residual          L2-NORM 
          0                 1           2            50    3     1       0.2620258031E+00      50    3    1         0.1458921039E-01      0.8012878352E-01
          0                 2           2            50    3     1      -0.2272783242E-01      50    3    1        -0.1523614179E-02      0.8006669498E-02
          0                 3           2            50    3     1       0.1848164627E-02      50    3    1         0.1367100986E-03      0.7920384250E-03
          0                 4           2            50    3     1      -0.1397603943E-03      50    3    1        -0.1095228628E-04      0.6891438932E-04
          0                 5           1            50    2     1       0.9573265116E-05      50    3    1         0.7699291505E-06      0.5109723269E-05
          0                 6           1            50    2     1      -0.5730977056E-06      50    3    1        -0.4657328234E-07      0.3184854160E-06

    ------------------------------------------------
       NWT REQUIRED            6 OUTER ITERATIONS 
       AND A TOTAL OF         10 INNER ITERATIONS.
    ------------------------------------------------

 NO OUTPUT CONTROL FOR STRESS PERIOD   10   TIME STEP   17
 
 SOLVING FOR HEAD 
                                                   Max.-Head-Change                         Max.-Flux-Residual
  Residual-Control   Outer-Iter.   Inner-Iter.     Column Row Layer    Maximum-Head-Change  Column Row Layer    Maximum-Flux-Residual          L2-NORM 
          0                 1           2            50    3     1       0.2365363131E+00      50    3    1         0.1196890006E-01      0.7705863031E-01
          0                 2           2            50    3     1      -0.2042530231E-01      50    3    1        -0.1249075759E-02      0.7698857115E-02
          0                 3           2            50    3     1       0.1649247750E-02      50    3    1         0.1120776160E-03      0.7668225594E-03
          0                 4           2            50    2     1      -0.1247167807E-03      50    3    1        -0.8978903357E-05      0.6732089321E-04
          0                 5           1            50    1     1       0.8637861100E-05      50    3    1         0.6312036083E-06      0.5031536139E-05
          0                 6           1            50    1     1      -0.5168000064E-06      62    4    1        -0.4056340330E-07      0.3153390375E-06

    ------------------------------------------------
       NWT REQUIRED            6 OUTER ITERATIONS 
       AND A TOTAL OF         10 INNER ITERATIONS.
    ------------------------------------------------

 NO OUTPUT CONTROL FOR STRESS PERIOD   10   TIME STEP   18
 
 SOLVING FOR HEAD 
                                                   Max.-Head-Change                         Max.-Flux-Residual
  Residual-Control   Outer-Iter.   Inner-Iter.     Column Row Layer    Maximum-Head-Change  Column Row Layer    Maximum-Flux-Residual          L2-NORM 
          0                 1           3            50    3     1       0.2134456253E+00      50    3    1         0.9842711306E-02      0.7458142501E-01
          0                 2           2            50    3     1      -0.1836011578E-01      50    3    1        -0.1026496568E-02      0.7450143310E-02
          0                 3           2            50    3     1       0.1472327798E-02      50    3    1         0.9210520530E-04      0.7463610389E-03
          0                 4           2            50    1     1      -0.1120415770E-03      63    4    1        -0.7789088871E-05      0.6606772824E-04
          0                 5           1            50    1     1       0.7772675918E-05      63    4    1         0.6397896115E-06      0.4976297594E-05
          0                 6           1            50    1     1      -0.4643615909E-06      63    4    1        -0.4166130374E-07      0.3135920922E-06

    ------------------------------------------------
       NWT REQUIRED            6 OUTER ITERATIONS 
       AND A TOTAL OF         11 INNER ITERATIONS.
    ------------------------------------------------

 NO OUTPUT CONTROL FOR STRESS PERIOD   10   TIME STEP   19
 
 SOLVING FOR HEAD 
                                                   Max.-Head-Change                         Max.-Flux-Residual
  Residual-Control   Outer-Iter.   Inner-Iter.     Column Row Layer    Maximum-Head-Change  Column Row Layer    Maximum-Flux-Residual          L2-NORM 
          0                 1           3            50    3     1       0.1914095733E+00      50    3    1         0.8080236132E-02      0.7256859845E-01
          0                 2           2            50    3     1      -0.1641762676E-01      50    3    1        -0.8418199347E-03      0.7246622215E-02
          0                 3           2            50    3     1       0.1308717667E-02      50    3    1         0.7553617134E-04      0.7293399170E-03
          0                 4           1            50    1     1      -0.9962487538E-04      63    4    1        -0.7873200557E-05      0.6504323648E-04
          0                 5           1            50    1     1       0.6864023601E-05      63    4    1         0.6468602081E-06      0.4916361716E-05
          0                 6           1            50    1     1      -0.4093523409E-06      64    4    1        -0.4265665865E-07      0.3113548575E-06

    ------------------------------------------------
       NWT REQUIRED            6 OUTER ITERATIONS 
       AND A TOTAL OF         10 INNER ITERATIONS.
    ------------------------------------------------

 NO OUTPUT CONTROL FOR STRESS PERIOD   10   TIME STEP   20
 
 SOLVING FOR HEAD 
                                                   Max.-Head-Change                         Max.-Flux-Residual
  Residual-Control   Outer-Iter.   Inner-Iter.     Column Row Layer    Maximum-Head-Change  Column Row Layer    Maximum-Flux-Residual          L2-NORM 
          0                 1           3            63    1     1      -0.1698647930E+00      50    3    1         0.6575655019E-02      0.7092821176E-01
          0                 2           2            62    1     1       0.1495884177E-01      50    3    1        -0.6839970714E-03      0.7078289321E-02
          0                 3           2            62    1     1      -0.1216915599E-02      62    4    1         0.6970658225E-04      0.7151423944E-03
          0                 4           1            62    1     1       0.9015695250E-04      62    4    1        -0.7809561623E-05      0.6420818850E-04
          0                 5           1            50    1     1       0.6003575612E-05      62    4    1         0.6504688415E-06      0.4880596563E-05
          0                 6           1            50    1     1      -0.3571850788E-06      64    4    1        -0.4332799541E-07      0.3105845213E-06

    ------------------------------------------------
       NWT REQUIRED            6 OUTER ITERATIONS 
       AND A TOTAL OF         10 INNER ITERATIONS.
    ------------------------------------------------

 NO OUTPUT CONTROL FOR STRESS PERIOD   10   TIME STEP   21
 
 SOLVING FOR HEAD 
                                                   Max.-Head-Change                         Max.-Flux-Residual
  Residual-Control   Outer-Iter.   Inner-Iter.     Column Row Layer    Maximum-Head-Change  Column Row Layer    Maximum-Flux-Residual          L2-NORM 
          0                 1           3            63    1     1      -0.1844790391E+00      50    3    1         0.5316190913E-02      0.6956948457E-01
          0                 2           2            63    1     1       0.1618000715E-01      50    3    1        -0.5515970874E-03      0.6940972331E-02
          0                 3           2            63    1     1      -0.1303737922E-02      64    4    1         0.6672614440E-04      0.7035483435E-03
          0                 4           1            62    1     1       0.9565677636E-04      64    4    1        -0.7726236518E-05      0.6354340829E-04
          0                 5           1            62    1     1      -0.6288150355E-05      64    4    1         0.6594187116E-06      0.4852509301E-05
          0                 6           1            62    1     1       0.3639984636E-06      64    4    1        -0.4454452451E-07      0.3101005967E-06

    ------------------------------------------------
       NWT REQUIRED            6 OUTER ITERATIONS 
       AND A TOTAL OF         10 INNER ITERATIONS.
    ------------------------------------------------

 NO OUTPUT CONTROL FOR STRESS PERIOD   10   TIME STEP   22
 
 SOLVING FOR HEAD 
                                                   Max.-Head-Change                         Max.-Flux-Residual
  Residual-Control   Outer-Iter.   Inner-Iter.     Column Row Layer    Maximum-Head-Change  Column Row Layer    Maximum-Flux-Residual          L2-NORM 
          0                 1           3            63    1     1      -0.1994660202E+00      63    3    1        -0.5264817457E-02      0.6840458003E-01
          0                 2           2            63    1     1       0.1743945660E-01      63    3    1         0.5259125227E-03      0.6822770810E-02
          0                 3           2            63    1     1      -0.1398243406E-02      64    4    1         0.6675605297E-04      0.6933769875E-03
          0                 4           1            63    1     1       0.1017673945E-03      64    4    1        -0.7769412408E-05      0.6295823381E-04
          0                 5           1            62    1     1      -0.6612575249E-05      64    4    1         0.6672747102E-06      0.4825656828E-05
          0                 6           1            62    1     1       0.3803614931E-06      64    4    1        -0.4534641995E-07      0.3094969753E-06

    ------------------------------------------------
       NWT REQUIRED            6 OUTER ITERATIONS 
       AND A TOTAL OF         10 INNER ITERATIONS.
    ------------------------------------------------

 NO OUTPUT CONTROL FOR STRESS PERIOD   10   TIME STEP   23
 
 SOLVING FOR HEAD 
                                                   Max.-Head-Change                         Max.-Flux-Residual
  Residual-Control   Outer-Iter.   Inner-Iter.     Column Row Layer    Maximum-Head-Change  Column Row Layer    Maximum-Flux-Residual          L2-NORM 
          0                 1           3            63    1     1      -0.2146981579E+00      63    3    1        -0.5162123177E-02      0.6736819646E-01
          0                 2           2            63    1     1       0.1870506990E-01      63    3    1         0.5155514249E-03      0.6719110354E-02
          0                 3           2            63    1     1      -0.1492006285E-02      64    4    1         0.6670604988E-04      0.6844395823E-03
          0                 4           2            63    1     1       0.1079314538E-03      64    4    1        -0.7792104912E-05      0.6244115749E-04
          0                 5           1            63    1     1      -0.6993207680E-05      64    4    1         0.6726040365E-06      0.4856597647E-05
          0                 6           1            62    1     1       0.3992817509E-06      64    4    1        -0.4594221181E-07      0.3127708842E-06

    ------------------------------------------------
       NWT REQUIRED            6 OUTER ITERATIONS 
       AND A TOTAL OF         11 INNER ITERATIONS.
    ------------------------------------------------

 NO OUTPUT CONTROL FOR STRESS PERIOD   10   TIME STEP   24
 
 SOLVING FOR HEAD 
                                                   Max.-Head-Change                         Max.-Flux-Residual
  Residual-Control   Outer-Iter.   Inner-Iter.     Column Row Layer    Maximum-Head-Change  Column Row Layer    Maximum-Flux-Residual          L2-NORM 
          0                 1           3            64    1     1      -0.2306711113E+00      63    3    1        -0.5041850462E-02      0.6637148698E-01
          0                 2           2            63    1     1       0.1999302269E-01      63    3    1         0.5034533231E-03      0.6624434957E-02
          0                 3           2            63    1     1      -0.1586319422E-02      64    4    1         0.6594638351E-04      0.6762831308E-03
          0                 4           2            63    1     1       0.1140044756E-03      64    4    1        -0.7751940162E-05      0.6195471166E-04
          0                 5           1            63    1     1      -0.7334381609E-05      64    4    1         0.6731383362E-06      0.4842050719E-05
          0                 6           1            63    1     1       0.4149545750E-06      64    4    1        -0.4623292327E-07      0.3125733410E-06

    ------------------------------------------------
       NWT REQUIRED            6 OUTER ITERATIONS 
       AND A TOTAL OF         11 INNER ITERATIONS.
    ------------------------------------------------

 NO OUTPUT CONTROL FOR STRESS PERIOD   10   TIME STEP   25
 
 SOLVING FOR HEAD 
                                                   Max.-Head-Change                         Max.-Flux-Residual
  Residual-Control   Outer-Iter.   Inner-Iter.     Column Row Layer    Maximum-Head-Change  Column Row Layer    Maximum-Flux-Residual          L2-NORM 
          0                 1           3            64    1     1      -0.2480030812E+00      64    1    1        -0.4921288856E-02      0.6541295496E-01
          0                 2           2            64    1     1       0.2140160566E-01      64    1    1         0.4915850922E-03      0.6528205496E-02
          0                 3           2            64    1     1      -0.1683867175E-02      64    4    1         0.6499231413E-04      0.6677632579E-03
          0                 4           2            63    1     1       0.1201660725E-03      64    4    1        -0.7686739794E-05      0.6141480644E-04
          0                 5           1            63    1     1      -0.7673961556E-05      64    4    1         0.6712898415E-06      0.4821767594E-05
          0                 6           1            63    1     1       0.4312086652E-06      64    4    1        -0.4634947715E-07      0.3118559697E-06

    ------------------------------------------------
       NWT REQUIRED            6 OUTER ITERATIONS 
       AND A TOTAL OF         11 INNER ITERATIONS.
    ------------------------------------------------

 NO OUTPUT CONTROL FOR STRESS PERIOD   10   TIME STEP   26
 
 SOLVING FOR HEAD 
                                                   Max.-Head-Change                         Max.-Flux-Residual
  Residual-Control   Outer-Iter.   Inner-Iter.     Column Row Layer    Maximum-Head-Change  Column Row Layer    Maximum-Flux-Residual          L2-NORM 
          0                 1           3            64    1     1      -0.2661933876E+00      64    1    1        -0.4811368125E-02      0.6447695458E-01
          0                 2           2            64    1     1       0.2289230623E-01      64    1    1         0.4805274748E-03      0.6436260905E-02
          0                 3           2            64    1     1      -0.1792020452E-02      64    4    1         0.6390199050E-04      0.6593751035E-03
          0                 4           2            64    1     1       0.1266245807E-03      65    4    1        -0.7611076494E-05      0.6084871615E-04
          0                 5           1            63    1     1      -0.8018386059E-05      65    4    1         0.6693282906E-06      0.4797117113E-05
          0                 6           1            63    1     1       0.4475922010E-06      64    4    1        -0.4629899308E-07      0.3106109341E-06

    ------------------------------------------------
       NWT REQUIRED            6 OUTER ITERATIONS 
       AND A TOTAL OF         11 INNER ITERATIONS.
    ------------------------------------------------

 NO OUTPUT CONTROL FOR STRESS PERIOD   10   TIME STEP   27
 
 SOLVING FOR HEAD 
                                                   Max.-Head-Change                         Max.-Flux-Residual
  Residual-Control   Outer-Iter.   Inner-Iter.     Column Row Layer    Maximum-Head-Change  Column Row Layer    Maximum-Flux-Residual          L2-NORM 
          0                 1           3            64    1     1      -0.2853156161E+00      64    1    1        -0.4696043640E-02      0.6357838146E-01
          0                 2           3            64    1     1       0.2446336107E-01      64    1    1         0.4689319601E-03      0.6342454211E-02
          0                 3           2            64    1     1      -0.1906244491E-02      64    4    1         0.6272560661E-04      0.6502428176E-03
          0                 4           2            64    1     1       0.1338411661E-03      64    4    1        -0.7501059059E-05      0.6017925394E-04
          0                 5           1            64    1     1      -0.8383289202E-05      64    4    1         0.6618855970E-06      0.4762987284E-05
          0                 6           1            63    1     1       0.4641185498E-06      64    4    1        -0.4614707017E-07      0.3083802938E-06

    ------------------------------------------------
       NWT REQUIRED            6 OUTER ITERATIONS 
       AND A TOTAL OF         12 INNER ITERATIONS.
    ------------------------------------------------

 NO OUTPUT CONTROL FOR STRESS PERIOD   10   TIME STEP   28
 
 SOLVING FOR HEAD 
                                                   Max.-Head-Change                         Max.-Flux-Residual
  Residual-Control   Outer-Iter.   Inner-Iter.     Column Row Layer    Maximum-Head-Change  Column Row Layer    Maximum-Flux-Residual          L2-NORM 
          0                 1           3            65    1     1      -0.3062435362E+00      64    1    1        -0.4576863881E-02      0.6271726626E-01
          0                 2           3            65    1     1       0.2615832063E-01      64    1    1         0.4569535392E-03      0.6251960189E-02
          0                 3           2            64    1     1      -0.2026311810E-02      65    4    1         0.6113626836E-04      0.6413847305E-03
          0                 4           2            64    1     1       0.1413970205E-03      65    4    1        -0.7374300498E-05      0.5952032185E-04
          0                 5           1            64    1     1      -0.8789573300E-05      65    4    1         0.6556394769E-06      0.4728161594E-05
          0                 6           1            63    1     1       0.4815363518E-06      66    4    1        -0.4596253511E-07      0.3058298951E-06

    ------------------------------------------------
       NWT REQUIRED            6 OUTER ITERATIONS 
       AND A TOTAL OF         12 INNER ITERATIONS.
    ------------------------------------------------

 NO OUTPUT CONTROL FOR STRESS PERIOD   10   TIME STEP   29
 
 SOLVING FOR HEAD 
                                                   Max.-Head-Change                         Max.-Flux-Residual
  Residual-Control   Outer-Iter.   Inner-Iter.     Column Row Layer    Maximum-Head-Change  Column Row Layer    Maximum-Flux-Residual          L2-NORM 
          0                 1           3            65    1     1      -0.3284633379E+00      65    1    1        -0.4467261133E-02      0.6190649096E-01
          0                 2           3            65    1     1       0.2798378510E-01      65    1    1         0.4460345347E-03      0.6165553820E-02
          0                 3           2            65    1     1      -0.2157802058E-02      65    4    1         0.6004949479E-04      0.6325618883E-03
          0                 4           2            65    7     1       0.1492643679E-03      65    4    1        -0.7271870608E-05      0.5882524694E-04
          0                 5           1            64    1     1      -0.9206312633E-05      65    4    1         0.6491619580E-06      0.4688286143E-05
          0                 6           1            63    1     1       0.4989606806E-06      66    4    1        -0.4533265141E-07      0.3025059959E-06

    ------------------------------------------------
       NWT REQUIRED            6 OUTER ITERATIONS 
       AND A TOTAL OF         12 INNER ITERATIONS.
    ------------------------------------------------

 OUTPUT CONTROL FOR STRESS PERIOD   10   TIME STEP   30
    PRINT HEAD FOR ALL LAYERS
    SAVE HEAD FOR ALL LAYERS
    PRINT BUDGET
    SAVE BUDGET

            WELLS   PERIOD   10   STEP  30
 WELL      1   LAYER   1   ROW     3   COL    50   RATE   -0.730002    
 WELL      2   LAYER   1   ROW     5   COL    55   RATE   -0.730002    

  HEAD DEP BOUNDS   PERIOD   10   STEP    30
 BOUNDARY      1   LAYER   1   ROW     1   COL   100   RATE   -3.542882E-02
 BOUNDARY      2   LAYER   1   ROW     2   COL   100   RATE   -3.550454E-02
 BOUNDARY      3   LAYER   1   ROW     3   COL   100   RATE   -3.541330E-02
 BOUNDARY      4   LAYER   1   ROW     4   COL   100   RATE   -2.820699E-02
 BOUNDARY      5   LAYER   1   ROW     5   COL   100   RATE   -3.541330E-02
 BOUNDARY      6   LAYER   1   ROW     6   COL   100   RATE   -3.550454E-02
 BOUNDARY      7   LAYER   1   ROW     7   COL   100   RATE   -3.542882E-02



 STREAM LISTING     PERIOD     10   STEP       30

 LAYER ROW COL. STREAM  RCH.   FLOW INTO    STREAM     FLOW OUT OF   OVRLND.    DIRECT     STREAM      STREAM      STREAM     STREAM  STREAMBED   FLOW TO   CHNG. UNSAT. 
                SEG.NO.  NO.   STRM. RCH.    LOSS       STRM. RCH.   RUNOFF     PRECIP       ET         HEAD        DEPTH      WIDTH  CONDCTNC.   WAT. TAB.

   1    4    1     1     1    1.1340E+01  3.2798E-03   1.1337E+01  0.000E+00  0.000E+00  0.000E+00  1.42414E+02  2.564E+00  4.880E+00  1.070E-03  3.653E-03 -3.731E-04
   1    4    2     1     2    1.1337E+01  3.2791E-03   1.1333E+01  0.000E+00  0.000E+00  0.000E+00  1.42114E+02  2.564E+00  4.880E+00  1.070E-03  3.651E-03 -3.719E-04
   1    4    3     1     3    1.1333E+01  3.2783E-03   1.1330E+01  0.000E+00  0.000E+00  0.000E+00  1.41813E+02  2.563E+00  4.879E+00  1.070E-03  3.649E-03 -3.702E-04
   1    4    4     1     4    1.1330E+01  3.2775E-03   1.1327E+01  0.000E+00  0.000E+00  0.000E+00  1.41513E+02  2.563E+00  4.879E+00  1.070E-03  3.646E-03 -3.682E-04
   1    4    5     1     5    1.1327E+01  3.2768E-03   1.1324E+01  0.000E+00  0.000E+00  0.000E+00  1.41213E+02  2.563E+00  4.879E+00  1.070E-03  3.642E-03 -3.656E-04
   1    4    6     1     6    1.1324E+01  3.2760E-03   1.1320E+01  0.000E+00  0.000E+00  0.000E+00  1.40912E+02  2.562E+00  4.878E+00  1.070E-03  3.639E-03 -3.627E-04
   1    4    7     1     7    1.1320E+01  3.2752E-03   1.1317E+01  0.000E+00  0.000E+00  0.000E+00  1.40612E+02  2.562E+00  4.878E+00  1.070E-03  3.634E-03 -3.592E-04
   1    4    8     1     8    1.1317E+01  3.2744E-03   1.1314E+01  0.000E+00  0.000E+00  0.000E+00  1.40312E+02  2.562E+00  4.877E+00  1.070E-03  3.630E-03 -3.554E-04
   1    4    9     1     9    1.1314E+01  3.2737E-03   1.1311E+01  0.000E+00  0.000E+00  0.000E+00  1.40011E+02  2.561E+00  4.877E+00  1.069E-03  3.625E-03 -3.511E-04
   1    4   10     1    10    1.1311E+01  3.2729E-03   1.1307E+01  0.000E+00  0.000E+00  0.000E+00  1.39711E+02  2.561E+00  4.876E+00  1.069E-03  3.619E-03 -3.463E-04
   1    4   11     1    11    1.1307E+01  3.2721E-03   1.1304E+01  0.000E+00  0.000E+00  0.000E+00  1.39410E+02  2.560E+00  4.876E+00  1.069E-03  3.613E-03 -3.410E-04
   1    4   12     1    12    1.1304E+01  3.2714E-03   1.1301E+01  0.000E+00  0.000E+00  0.000E+00  1.39110E+02  2.560E+00  4.875E+00  1.069E-03  3.607E-03 -3.353E-04
   1    4   13     1    13    1.1301E+01  3.2706E-03   1.1297E+01  0.000E+00  0.000E+00  0.000E+00  1.38810E+02  2.560E+00  4.875E+00  1.069E-03  3.600E-03 -3.291E-04
   1    4   14     1    14    1.1297E+01  3.2698E-03   1.1294E+01  0.000E+00  0.000E+00  0.000E+00  1.38509E+02  2.559E+00  4.875E+00  1.069E-03  3.592E-03 -3.224E-04
   1    4   15     1    15    1.1294E+01  3.2690E-03   1.1291E+01  0.000E+00  0.000E+00  0.000E+00  1.38209E+02  2.559E+00  4.874E+00  1.069E-03  3.584E-03 -3.152E-04
   1    4   16     1    16    1.1291E+01  3.2683E-03   1.1288E+01  0.000E+00  0.000E+00  0.000E+00  1.37909E+02  2.559E+00  4.874E+00  1.069E-03  3.576E-03 -3.075E-04
   1    4   17     1    17    1.1288E+01  3.2675E-03   1.1284E+01  0.000E+00  0.000E+00  0.000E+00  1.37608E+02  2.558E+00  4.873E+00  1.068E-03  3.567E-03 -2.993E-04
   1    4   18     1    18    1.1284E+01  3.2667E-03   1.1281E+01  0.000E+00  0.000E+00  0.000E+00  1.37308E+02  2.558E+00  4.873E+00  1.068E-03  3.557E-03 -2.905E-04
   1    4   19     1    19    1.1281E+01  3.2660E-03   1.1278E+01  0.000E+00  0.000E+00  0.000E+00  1.37007E+02  2.557E+00  4.872E+00  1.068E-03  3.547E-03 -2.811E-04
   1    4   20     1    20    1.1278E+01  3.2652E-03   1.1275E+01  0.000E+00  0.000E+00  0.000E+00  1.36707E+02  2.557E+00  4.872E+00  1.068E-03  3.536E-03 -2.712E-04
   1    4   21     1    21    1.1275E+01  3.2644E-03   1.1271E+01  0.000E+00  0.000E+00  0.000E+00  1.36407E+02  2.557E+00  4.871E+00  1.068E-03  3.525E-03 -2.607E-04
   1    4   22     1    22    1.1271E+01  3.2637E-03   1.1268E+01  0.000E+00  0.000E+00  0.000E+00  1.36106E+02  2.556E+00  4.871E+00  1.068E-03  3.513E-03 -2.496E-04
   1    4   23     1    23    1.1268E+01  3.2629E-03   1.1265E+01  0.000E+00  0.000E+00  0.000E+00  1.35806E+02  2.556E+00  4.871E+00  1.068E-03  3.501E-03 -2.379E-04
   1    4   24     1    24    1.1265E+01  3.2621E-03   1.1261E+01  0.000E+00  0.000E+00  0.000E+00  1.35506E+02  2.556E+00  4.870E+00  1.068E-03  3.492E-03 -2.298E-04
   1    4   25     1    25    1.1261E+01  3.2614E-03   1.1258E+01  0.000E+00  0.000E+00  0.000E+00  1.35205E+02  2.555E+00  4.870E+00  1.067E-03  3.488E-03 -2.269E-04
   1    4   26     1    26    1.1258E+01  3.2606E-03   1.1255E+01  0.000E+00  0.000E+00  0.000E+00  1.34905E+02  2.555E+00  4.869E+00  1.067E-03  3.485E-03 -2.245E-04
   1    4   27     1    27    1.1255E+01  3.2598E-03   1.1252E+01  0.000E+00  0.000E+00  0.000E+00  1.34604E+02  2.554E+00  4.869E+00  1.067E-03  3.489E-03 -2.291E-04
   1    4   28     1    28    1.1252E+01  3.2591E-03   1.1248E+01  0.000E+00  0.000E+00  0.000E+00  1.34304E+02  2.554E+00  4.868E+00  1.067E-03  3.513E-03 -2.536E-04
   1    4   29     1    29    1.1248E+01  3.2583E-03   1.1245E+01  0.000E+00  0.000E+00  0.000E+00  1.34004E+02  2.554E+00  4.868E+00  1.067E-03  3.522E-03 -2.638E-04
   1    4   30     1    30    1.1245E+01  3.2575E-03   1.1242E+01  0.000E+00  0.000E+00  0.000E+00  1.33703E+02  2.553E+00  4.867E+00  1.067E-03  3.510E-03 -2.529E-04
   1    4   31     1    31    1.1242E+01  3.2567E-03   1.1239E+01  0.000E+00  0.000E+00  0.000E+00  1.33403E+02  2.553E+00  4.867E+00  1.067E-03  3.506E-03 -2.488E-04
   1    4   32     1    32    1.1239E+01  3.2560E-03   1.1235E+01  0.000E+00  0.000E+00  0.000E+00  1.33103E+02  2.553E+00  4.867E+00  1.067E-03  3.502E-03 -2.453E-04
   1    4   33     1    33    1.1235E+01  3.2552E-03   1.1232E+01  0.000E+00  0.000E+00  0.000E+00  1.32802E+02  2.552E+00  4.866E+00  1.067E-03  3.497E-03 -2.405E-04
   1    4   34     1    34    1.1232E+01  3.2544E-03   1.1229E+01  0.000E+00  0.000E+00  0.000E+00  1.32502E+02  2.552E+00  4.866E+00  1.066E-03  3.478E-03 -2.226E-04
   1    4   35     1    35    1.1229E+01  3.2537E-03   1.1226E+01  0.000E+00  0.000E+00  0.000E+00  1.32201E+02  2.551E+00  4.865E+00  1.066E-03  3.464E-03 -2.090E-04
   1    4   36     1    36    1.1226E+01  3.2529E-03   1.1222E+01  0.000E+00  0.000E+00  0.000E+00  1.31901E+02  2.551E+00  4.865E+00  1.066E-03  3.490E-03 -2.360E-04
   1    4   37     1    37    1.1222E+01  3.2521E-03   1.1219E+01  0.000E+00  0.000E+00  0.000E+00  1.31601E+02  2.551E+00  4.864E+00  1.066E-03  3.475E-03 -2.210E-04
   1    4   38     1    38    1.1219E+01  3.2514E-03   1.1216E+01  0.000E+00  0.000E+00  0.000E+00  1.31300E+02  2.550E+00  4.864E+00  1.066E-03  3.461E-03 -2.080E-04
   1    4   39     1    39    1.1216E+01  3.2506E-03   1.1213E+01  0.000E+00  0.000E+00  0.000E+00  1.31000E+02  2.550E+00  4.863E+00  1.066E-03  3.451E-03 -1.993E-04
   1    4   40     1    40    1.1213E+01  3.2498E-03   1.1209E+01  0.000E+00  0.000E+00  0.000E+00  1.30700E+02  2.550E+00  4.863E+00  1.066E-03  3.484E-03 -2.324E-04
   1    4   41     1    41    1.1209E+01  3.2491E-03   1.1206E+01  0.000E+00  0.000E+00  0.000E+00  1.30399E+02  2.549E+00  4.863E+00  1.066E-03  3.481E-03 -2.304E-04
   1    4   42     1    42    1.1206E+01  3.2483E-03   1.1203E+01  0.000E+00  0.000E+00  0.000E+00  1.30099E+02  2.549E+00  4.862E+00  1.065E-03  3.512E-03 -2.621E-04
   1    4   43     1    43    1.1203E+01  3.2475E-03   1.1200E+01  0.000E+00  0.000E+00  0.000E+00  1.29799E+02  2.549E+00  4.862E+00  1.065E-03  3.525E-03 -2.753E-04
   1    4   44     1    44    1.1200E+01  3.2468E-03   1.1196E+01  0.000E+00  0.000E+00  0.000E+00  1.29498E+02  2.548E+00  4.861E+00  1.065E-03  3.544E-03 -2.942E-04
   1    4   45     1    45    1.1196E+01  3.2460E-03   1.1193E+01  0.000E+00  0.000E+00  0.000E+00  1.29198E+02  2.548E+00  4.861E+00  1.065E-03  3.571E-03 -3.220E-04
   1    4   46     1    46    1.1193E+01  3.2453E-03   1.1190E+01  0.000E+00  0.000E+00  0.000E+00  1.28897E+02  2.547E+00  4.860E+00  1.065E-03  3.607E-03 -3.589E-04
   1    4   47     1    47    1.1190E+01  3.2445E-03   1.1187E+01  0.000E+00  0.000E+00  0.000E+00  1.28597E+02  2.547E+00  4.860E+00  1.065E-03  3.651E-03 -4.044E-04
   1    4   48     1    48    1.1187E+01  3.2437E-03   1.1183E+01  0.000E+00  0.000E+00  0.000E+00  1.28297E+02  2.547E+00  4.859E+00  1.065E-03  3.703E-03 -4.565E-04
   1    4   49     1    49    1.1183E+01  3.2430E-03   1.1180E+01  0.000E+00  0.000E+00  0.000E+00  1.27996E+02  2.546E+00  4.859E+00  1.065E-03  3.755E-03 -5.091E-04
   1    4   50     1    50    1.1180E+01  3.2422E-03   1.1177E+01  0.000E+00  0.000E+00  0.000E+00  1.27696E+02  2.546E+00  4.859E+00  1.064E-03  3.791E-03 -5.465E-04
   1    4   51     1    51    1.1177E+01  3.2414E-03   1.1174E+01  0.000E+00  0.000E+00  0.000E+00  1.27396E+02  2.546E+00  4.858E+00  1.064E-03  3.854E-03 -6.098E-04
   1    4   52     1    52    1.1174E+01  3.2407E-03   1.1170E+01  0.000E+00  0.000E+00  0.000E+00  1.27095E+02  2.545E+00  4.858E+00  1.064E-03  3.878E-03 -6.344E-04
   1    4   53     1    53    1.1170E+01  3.2399E-03   1.1167E+01  0.000E+00  0.000E+00  0.000E+00  1.26795E+02  2.545E+00  4.857E+00  1.064E-03  3.865E-03 -6.225E-04
   1    4   54     1    54    1.1167E+01  3.2391E-03   1.1164E+01  0.000E+00  0.000E+00  0.000E+00  1.26494E+02  2.544E+00  4.857E+00  1.064E-03  3.816E-03 -5.742E-04
   1    4   55     1    55    1.1164E+01  3.2384E-03   1.1161E+01  0.000E+00  0.000E+00  0.000E+00  1.26194E+02  2.544E+00  4.856E+00  1.064E-03  3.727E-03 -4.860E-04
   1    4   56     1    56    1.1161E+01  3.2376E-03   1.1158E+01  0.000E+00  0.000E+00  0.000E+00  1.25894E+02  2.544E+00  4.856E+00  1.064E-03  3.673E-03 -4.331E-04
   1    4   57     1    57    1.1158E+01  3.2368E-03   1.1154E+01  0.000E+00  0.000E+00  0.000E+00  1.25593E+02  2.543E+00  4.855E+00  1.064E-03  3.618E-03 -3.785E-04
   1    4   58     1    58    1.1154E+01  3.2361E-03   1.1151E+01  0.000E+00  0.000E+00  0.000E+00  1.25293E+02  2.543E+00  4.855E+00  1.063E-03  3.561E-03 -3.223E-04
   1    4   59     1    59    1.1151E+01  3.2353E-03   1.1148E+01  0.000E+00  0.000E+00  0.000E+00  1.24993E+02  2.543E+00  4.855E+00  1.063E-03  3.510E-03 -2.720E-04
   1    4   60     1    60    1.1148E+01  3.2346E-03   1.1145E+01  0.000E+00  0.000E+00  0.000E+00  1.24692E+02  2.542E+00  4.854E+00  1.063E-03  3.467E-03 -2.299E-04
   1    4   61     1    61    1.1145E+01  3.2338E-03   1.1141E+01  0.000E+00  0.000E+00  0.000E+00  1.24392E+02  2.542E+00  4.854E+00  1.063E-03  3.433E-03 -1.966E-04
   1    4   62     1    62    1.1141E+01  3.2330E-03   1.1138E+01  0.000E+00  0.000E+00  0.000E+00  1.24091E+02  2.541E+00  4.853E+00  1.063E-03  3.407E-03 -1.719E-04
   1    4   63     1    63    1.1138E+01  3.2323E-03   1.1135E+01  0.000E+00  0.000E+00  0.000E+00  1.23791E+02  2.541E+00  4.853E+00  1.063E-03  3.390E-03 -1.559E-04
   1    4   64     1    64    1.1135E+01  3.2315E-03   1.1132E+01  0.000E+00  0.000E+00  0.000E+00  1.23491E+02  2.541E+00  4.852E+00  1.063E-03  3.352E-03 -1.188E-04
   1    4   65     1    65    1.1132E+01  3.2307E-03   1.1128E+01  0.000E+00  0.000E+00  0.000E+00  1.23190E+02  2.540E+00  4.852E+00  1.063E-03  3.347E-03 -1.148E-04
   1    4   66     1    66    1.1128E+01  3.2300E-03   1.1125E+01  0.000E+00  0.000E+00  0.000E+00  1.22890E+02  2.540E+00  4.851E+00  1.062E-03  3.314E-03 -8.234E-05
   1    4   67     1    67    1.1125E+01  3.2292E-03   1.1122E+01  0.000E+00  0.000E+00  0.000E+00  1.22590E+02  2.540E+00  4.851E+00  1.062E-03  3.316E-03 -8.500E-05
   1    4   68     1    68    1.1122E+01  3.2285E-03   1.1119E+01  0.000E+00  0.000E+00  0.000E+00  1.22289E+02  2.539E+00  4.851E+00  1.062E-03  3.322E-03 -9.229E-05
   1    4   69     1    69    1.1119E+01  3.2277E-03   1.1115E+01  0.000E+00  0.000E+00  0.000E+00  1.21989E+02  2.539E+00  4.850E+00  1.062E-03  3.322E-03 -9.363E-05
   1    4   70     1    70    1.1115E+01  3.2269E-03   1.1112E+01  0.000E+00  0.000E+00  0.000E+00  1.21688E+02  2.538E+00  4.850E+00  1.062E-03  3.293E-03 -6.594E-05
   1    4   71     1    71    1.1112E+01  3.2262E-03   1.1109E+01  0.000E+00  0.000E+00  0.000E+00  1.21388E+02  2.538E+00  4.849E+00  1.062E-03  3.284E-03 -5.814E-05
   1    4   72     1    72    1.1109E+01  3.2254E-03   1.1106E+01  0.000E+00  0.000E+00  0.000E+00  1.21088E+02  2.538E+00  4.849E+00  1.062E-03  3.283E-03 -5.791E-05
   1    4   73     1    73    1.1106E+01  3.2246E-03   1.1103E+01  0.000E+00  0.000E+00  0.000E+00  1.20787E+02  2.537E+00  4.848E+00  1.062E-03  3.279E-03 -5.450E-05
   1    4   74     1    74    1.1103E+01  3.2239E-03   1.1099E+01  0.000E+00  0.000E+00  0.000E+00  1.20487E+02  2.537E+00  4.848E+00  1.062E-03  3.269E-03 -4.535E-05
   1    4   75     1    75    1.1099E+01  3.2231E-03   1.1096E+01  0.000E+00  0.000E+00  0.000E+00  1.20187E+02  2.537E+00  4.847E+00  1.061E-03  3.263E-03 -3.978E-05
   1    4   76     1    76    1.1096E+01  3.2224E-03   1.1093E+01  0.000E+00  0.000E+00  0.000E+00  1.19886E+02  2.536E+00  4.847E+00  1.061E-03  3.263E-03 -4.066E-05
   1    4   77     1    77    1.1093E+01  3.2216E-03   1.1090E+01  0.000E+00  0.000E+00  0.000E+00  1.19586E+02  2.536E+00  4.847E+00  1.061E-03  3.254E-03 -3.202E-05
   1    4   78     1    78    1.1090E+01  3.2208E-03   1.1086E+01  0.000E+00  0.000E+00  0.000E+00  1.19286E+02  2.536E+00  4.846E+00  1.061E-03  3.261E-03 -4.007E-05
   1    4   79     1    79    1.1086E+01  3.2201E-03   1.1083E+01  0.000E+00  0.000E+00  0.000E+00  1.18985E+02  2.535E+00  4.846E+00  1.061E-03  3.258E-03 -3.807E-05
   1    4   80     1    80    1.1083E+01  3.2193E-03   1.1080E+01  0.000E+00  0.000E+00  0.000E+00  1.18685E+02  2.535E+00  4.845E+00  1.061E-03  3.257E-03 -3.744E-05
   1    4   81     1    81    1.1080E+01  3.2186E-03   1.1077E+01  0.000E+00  0.000E+00  0.000E+00  1.18384E+02  2.534E+00  4.845E+00  1.061E-03  3.258E-03 -3.897E-05
   1    4   82     1    82    1.1077E+01  3.2178E-03   1.1074E+01  0.000E+00  0.000E+00  0.000E+00  1.18084E+02  2.534E+00  4.844E+00  1.061E-03  3.260E-03 -4.265E-05
   1    4   83     1    83    1.1074E+01  3.2170E-03   1.1070E+01  0.000E+00  0.000E+00  0.000E+00  1.17784E+02  2.534E+00  4.844E+00  1.060E-03  3.265E-03 -4.844E-05
   1    4   84     1    84    1.1070E+01  3.2163E-03   1.1067E+01  0.000E+00  0.000E+00  0.000E+00  1.17483E+02  2.533E+00  4.843E+00  1.060E-03  3.273E-03 -5.632E-05
   1    4   85     1    85    1.1067E+01  3.2155E-03   1.1064E+01  0.000E+00  0.000E+00  0.000E+00  1.17183E+02  2.533E+00  4.843E+00  1.060E-03  3.282E-03 -6.628E-05
   1    4   86     1    86    1.1064E+01  3.2148E-03   1.1061E+01  0.000E+00  0.000E+00  0.000E+00  1.16883E+02  2.533E+00  4.843E+00  1.060E-03  3.293E-03 -7.835E-05
   1    4   87     1    87    1.1061E+01  3.2140E-03   1.1058E+01  0.000E+00  0.000E+00  0.000E+00  1.16582E+02  2.532E+00  4.842E+00  1.060E-03  3.307E-03 -9.253E-05
   1    4   88     1    88    1.1058E+01  3.2132E-03   1.1054E+01  0.000E+00  0.000E+00  0.000E+00  1.16282E+02  2.532E+00  4.842E+00  1.060E-03  3.322E-03 -1.089E-04
   1    4   89     1    89    1.1054E+01  3.2125E-03   1.1051E+01  0.000E+00  0.000E+00  0.000E+00  1.15981E+02  2.531E+00  4.841E+00  1.060E-03  3.340E-03 -1.273E-04
   1    4   90     1    90    1.1051E+01  3.2117E-03   1.1048E+01  0.000E+00  0.000E+00  0.000E+00  1.15681E+02  2.531E+00  4.841E+00  1.060E-03  3.360E-03 -1.480E-04
   1    4   91     1    91    1.1048E+01  3.2110E-03   1.1045E+01  0.000E+00  0.000E+00  0.000E+00  1.15381E+02  2.531E+00  4.840E+00  1.059E-03  3.393E-03 -1.818E-04
   1    4   92     1    92    1.1045E+01  3.2102E-03   1.1041E+01  0.000E+00  0.000E+00  0.000E+00  1.15080E+02  2.530E+00  4.840E+00  1.059E-03  3.428E-03 -2.181E-04
   1    4   93     1    93    1.1041E+01  3.2094E-03   1.1038E+01  0.000E+00  0.000E+00  0.000E+00  1.14780E+02  2.530E+00  4.839E+00  1.059E-03  3.447E-03 -2.380E-04
   1    4   94     1    94    1.1038E+01  3.2087E-03   1.1035E+01  0.000E+00  0.000E+00  0.000E+00  1.14480E+02  2.530E+00  4.839E+00  1.059E-03  3.460E-03 -2.516E-04
   1    4   95     1    95    1.1035E+01  3.2079E-03   1.1032E+01  0.000E+00  0.000E+00  0.000E+00  1.14179E+02  2.529E+00  4.839E+00  1.059E-03  3.474E-03 -2.662E-04
   1    4   96     1    96    1.1032E+01  3.2072E-03   1.1029E+01  0.000E+00  0.000E+00  0.000E+00  1.13879E+02  2.529E+00  4.838E+00  1.059E-03  3.504E-03 -2.965E-04
   1    4   97     1    97    1.1029E+01  3.2064E-03   1.1025E+01  0.000E+00  0.000E+00  0.000E+00  1.13578E+02  2.528E+00  4.838E+00  1.059E-03  3.535E-03 -3.288E-04
   1    4   98     1    98    1.1025E+01  3.2057E-03   1.1022E+01  0.000E+00  0.000E+00  0.000E+00  1.13278E+02  2.528E+00  4.837E+00  1.059E-03  3.569E-03 -3.630E-04
   1    4   99     1    99    1.1022E+01  3.2049E-03   1.1019E+01  0.000E+00  0.000E+00  0.000E+00  1.12978E+02  2.528E+00  4.837E+00  1.059E-03  3.595E-03 -3.905E-04
   1    4  100     1   100    1.1019E+01  3.2041E-03   1.1016E+01  0.000E+00  0.000E+00  0.000E+00  1.12677E+02  2.527E+00  4.836E+00  1.058E-03  3.647E-03 -4.427E-04



1
  VOLUMETRIC BUDGET FOR UNSATURATED ZONE BENEATH STREAMS AT END OF TIME STEP    30 STRESS PERIOD  10
  ------------------------------------------------------------------------------------------------

    CUMULATIVE VOLUMES             L**3    RATES FOR THIS TIME STEP         L**3/T
    ------------------                     ------------------------


          STREAM LOSS =     12463112.0000            STREAM LOSS =            0.3242
    CHANGE IN STORAGE =      1514032.0000      CHANGE IN STORAGE =       -2.5036E-02
       RECHARGE TO GW =     10952650.0000         RECHARGE TO GW =            0.3493

             TOTAL IN =     12463112.0000               TOTAL IN =            0.3492

            TOTAL OUT =     12466682.0000              TOTAL OUT =            0.3493

             IN - OUT =        -3570.0000               IN - OUT =       -7.6145E-05

  PERCENT DISCREPANCY =           -0.01      PERCENT DISCREPANCY =            -0.01



1
              HEAD IN LAYER   1 AT END OF TIME STEP  30 IN STRESS PERIOD   10
  ---------------------------------------------------------------------------

          1      2      3      4      5      6      7      8      9     10
         11     12     13     14     15     16     17     18     19     20
         21     22     23     24     25     26     27     28     29     30
         31     32     33     34     35     36     37     38     39     40
         41     42     43     44     45     46     47     48     49     50
         51     52     53     54     55     56     57     58     59     60
         61     62     63     64     65     66     67     68     69     70
         71     72     73     74     75     76     77     78     79     80
         81     82     83     84     85     86     87     88     89     90
         91     92     93     94     95     96     97     98     99    100
 .........................................................................
   1   107.0  107.0  107.0  106.9  106.8  106.7  106.6  106.5  106.3  106.1
       105.9  105.6  105.3  105.0  104.7  104.3  103.9  103.4  102.9  102.4
       101.8  101.1  100.5   99.7   98.9   98.0   97.1   96.0   94.9   93.7
        92.4   91.0   89.4   87.8   86.0   84.0   81.9   79.6   77.0   74.3
        71.3   68.0   64.4   60.4   55.9   50.9   45.2   38.5   30.5   21.6
        20.6   20.9   21.3   22.3   25.1   31.2   37.7   43.7   49.1   53.8
        58.0   61.8   65.1   68.2   70.9   73.3   75.5   77.5   79.3   80.8
        82.2   83.4   84.5   85.4   86.2   86.9   87.4   87.8   88.2   88.4
        88.5   88.5   88.4   88.2   87.9   87.6   87.2   86.6   86.1   85.4
        84.6   83.8   82.9   82.0   81.0   79.9   78.7   77.5   76.3   75.0
   2   107.1  107.0  107.0  106.9  106.8  106.7  106.6  106.5  106.3  106.1
       105.9  105.6  105.3  105.0  104.7  104.3  103.9  103.4  102.9  102.4
       101.8  101.1  100.5   99.7   98.9   98.0   97.1   96.0   94.9   93.7
        92.4   91.0   89.4   87.8   86.0   84.0   81.9   79.6   77.0   74.3
        71.3   68.0   64.4   60.4   55.9   50.9   45.2   38.5   30.2   19.3
        20.3   20.9   21.2   21.8   24.2   30.8   37.6   43.7   49.1   53.8
        58.0   61.8   65.1   68.2   70.9   73.3   75.5   77.5   79.3   80.8
        82.2   83.4   84.5   85.4   86.2   86.9   87.4   87.8   88.2   88.4
        88.5   88.5   88.4   88.2   87.9   87.6   87.2   86.6   86.1   85.4
        84.6   83.8   82.9   82.0   81.0   79.9   78.7   77.5   76.3   75.0
   3   107.1  107.0  107.0  106.9  106.8  106.7  106.6  106.5  106.3  106.1
       105.9  105.6  105.3  105.0  104.7  104.3  103.9  103.4  102.9  102.4
       101.8  101.2  100.5   99.7   98.9   98.0   97.1   96.0   94.9   93.7
        92.4   91.0   89.4   87.8   86.0   84.0   81.9   79.6   77.0   74.3
        71.3   68.0   64.4   60.4   55.9   51.0   45.3   38.6   30.0   12.9
        20.1   20.9   21.0   21.0   21.9   30.1   37.4   43.7   49.1   53.8
        58.0   61.8   65.1   68.2   70.9   73.3   75.5   77.5   79.3   80.8
        82.2   83.4   84.5   85.4   86.2   86.9   87.4   87.9   88.2   88.4
        88.5   88.5   88.4   88.2   88.0   87.6   87.2   86.7   86.1   85.4
        84.6   83.8   82.9   82.0   81.0   79.9   78.8   77.6   76.3   75.0
   4   107.1  107.0  107.0  106.9  106.9  106.7  106.6  106.5  106.3  106.1
       105.9  105.6  105.3  105.0  104.7  104.3  103.9  103.4  102.9  102.4
       101.8  101.2  100.5   99.7   98.9   98.0   97.1   96.0   94.9   93.7
        92.4   91.0   89.5   87.8   86.0   84.0   81.9   79.6   77.1   74.3
        71.3   68.0   64.4   60.4   56.0   51.0   45.4   38.8   30.7   19.5
        20.9   21.1   20.8   20.1   18.0   29.2   37.2   43.6   49.0   53.8
        58.0   61.8   65.2   68.2   70.9   73.3   75.5   77.5   79.3   80.8
        82.2   83.5   84.5   85.5   86.2   86.9   87.4   87.9   88.2   88.4
        88.5   88.5   88.4   88.2   88.0   87.6   87.2   86.7   86.1   85.4
        84.7   83.8   83.0   82.0   81.0   79.9   78.8   77.6   76.3   75.0
   5   107.1  107.0  107.0  106.9  106.8  106.7  106.6  106.5  106.3  106.1
       105.9  105.6  105.3  105.0  104.7  104.3  103.9  103.4  102.9  102.4
       101.8  101.2  100.5   99.7   98.9   98.0   97.1   96.0   94.9   93.7
        92.4   91.0   89.4   87.8   86.0   84.0   81.9   79.6   77.0   74.3
        71.3   68.0   64.4   60.4   55.9   51.0   45.4   39.0   31.5   23.2
        21.8   21.2   20.6   19.2   10.8   28.4   37.0   43.5   49.0   53.8
        58.0   61.8   65.1   68.2   70.9   73.3   75.5   77.5   79.3   80.8
        82.2   83.4   84.5   85.4   86.2   86.9   87.4   87.9   88.2   88.4
        88.5   88.5   88.4   88.2   88.0   87.6   87.2   86.7   86.1   85.4
        84.6   83.8   82.9   82.0   81.0   79.9   78.8   77.6   76.3   75.0
   6   107.1  107.0  107.0  106.9  106.8  106.7  106.6  106.5  106.3  106.1
       105.9  105.6  105.3  105.0  104.7  104.3  103.9  103.4  102.9  102.4
       101.8  101.1  100.5   99.7   98.9   98.0   97.1   96.0   94.9   93.7
        92.4   91.0   89.4   87.8   86.0   84.0   81.9   79.6   77.0   74.3
        71.3   68.0   64.4   60.4   55.9   51.0   45.5   39.2   32.3   25.4
        22.6   21.4   20.6   19.4   17.7   28.7   36.9   43.5   49.0   53.8
        58.0   61.8   65.1   68.2   70.9   73.3   75.5   77.5   79.3   80.8
        82.2   83.4   84.5   85.4   86.2   86.9   87.4   87.8   88.2   88.4
        88.5   88.5   88.4   88.2   87.9   87.6   87.2   86.6   86.1   85.4
        84.6   83.8   82.9   82.0   81.0   79.9   78.7   77.5   76.3   75.0
   7   107.0  107.0  107.0  106.9  106.8  106.7  106.6  106.5  106.3  106.1
       105.9  105.6  105.3  105.0  104.7  104.3  103.9  103.4  102.9  102.4
       101.8  101.1  100.5   99.7   98.9   98.0   97.1   96.0   94.9   93.7
        92.4   91.0   89.4   87.8   86.0   84.0   81.9   79.6   77.0   74.3
        71.3   68.0   64.4   60.4   55.9   51.0   45.5   39.3   32.6   26.3
        23.1   21.6   20.6   19.7   20.2   29.0   36.9   43.4   49.0   53.8
        58.0   61.8   65.1   68.2   70.9   73.3   75.5   77.5   79.3   80.8
        82.2   83.4   84.5   85.4   86.2   86.9   87.4   87.8   88.2   88.4
        88.5   88.5   88.4   88.2   87.9   87.6   87.2   86.6   86.1   85.4
        84.6   83.8   82.9   82.0   81.0   79.9   78.7   77.5   76.3   75.0

 HEAD WILL BE SAVED ON UNIT   51 AT END OF TIME STEP   30, STRESS PERIOD   10
1
  VOLUMETRIC BUDGET FOR ENTIRE MODEL AT END OF TIME STEP   30, STRESS PERIOD  10
  ------------------------------------------------------------------------------

     CUMULATIVE VOLUMES      L**3       RATES FOR THIS TIME STEP      L**3/T
     ------------------                 ------------------------

           IN:                                      IN:
           ---                                      ---
             STORAGE     =    58216988.0000               STORAGE     =           1.3562
       CONSTANT HEAD     =           0.0000         CONSTANT HEAD     =           0.0000
               WELLS     =           0.0000                 WELLS     =           0.0000
     HEAD DEP BOUNDS     =           0.0000       HEAD DEP BOUNDS     =           0.0000
      STREAM LEAKAGE     =    10952666.0000        STREAM LEAKAGE     =           0.3493

                TOTAL IN =    69169656.0000                  TOTAL IN =           1.7055

          OUT:                                     OUT:
          ----                                     ----
             STORAGE     =     1651185.5000               STORAGE     =       4.5972E-03
       CONSTANT HEAD     =           0.0000         CONSTANT HEAD     =           0.0000
               WELLS     =    55439276.0000                 WELLS     =           1.4600
     HEAD DEP BOUNDS     =    12079191.0000       HEAD DEP BOUNDS     =           0.2409
      STREAM LEAKAGE     =           0.0000        STREAM LEAKAGE     =           0.0000

               TOTAL OUT =    69169648.0000                 TOTAL OUT =           1.7055

                IN - OUT =           8.0000                  IN - OUT =           0.0000

     PERCENT DISCREPANCY =           0.00         PERCENT DISCREPANCY =           0.00






         TIME SUMMARY AT END OF TIME STEP   30 IN STRESS PERIOD   10
                    SECONDS     MINUTES      HOURS       DAYS        YEARS
                    -----------------------------------------------------------
   TIME STEP LENGTH 2.49961E+05  4166.0      69.434      2.8931     7.92080E-03
 STRESS PERIOD TIME 2.59200E+06  43200.      720.00      30.000     8.21355E-02
         TOTAL TIME 2.59200E+07 4.32000E+05  7200.0      300.00     0.82136    
1
1
                            STRESS PERIOD NO.   11, LENGTH =   2592000.    
                            -----------------------------------------------

                              NUMBER OF TIME STEPS =    30

                               MULTIPLIER FOR DELT =     1.100

                            INITIAL TIME STEP SIZE =   15757.40    

 REUSING NON-PARAMETER WELLS FROM LAST STRESS PERIOD

      1 WELL 

 REUSING NON-PARAMETER GHB CELLS FROM LAST STRESS PERIOD

      7 GHB CELLS



 CLASSIFICATION & COUNT OF STREAM SEGMENTS BASED ON SOURCE OF INFLOW:

                HEADWATER     DIVERSION     RECEIVES TRIBUTARY FLOW
                ---------     ---------     -----------------------
                     1              0               0



                    INPUT DATA FOR EACH STREAM SEGMENT
 ---------------------------------------------------------------------------------------------

 SEGMENT    SEG.     INFLOW   OVERLAND   STREAM    STREAM   ICALC  OUTFLOW  DIVERSION PRIORITY
    NO.    LENGTH     RATE     RUNOFF      ET       PPT.    METH.  TO SEG.  FROM SEG.    NO.

      1  2.000E+04 3.384E+00 0.000E+00 0.000E+00 0.000E+00    2        0        0        0


         STREAMBED PROPERTIES AND STREAM DIMENSIONS

 SEGMENT     BED HYD. COND.      BED THICKNESS     ELEV.-TOP OF BED     WIDTH OF STREAM     DEPTH OF STREAM    STREAM ROUGHNESS
    No.     UPPER     LOWER     UPPER     LOWER     UPPER     LOWER     UPPER     LOWER     UPPER     LOWER   CHANNEL      BANK

     1  3.500E-07 3.500E-07                                                                                 3.000E-02 4.000E-02

  EIGHT POINT CROSS-SECTION DATA FOR SEGMENTS WITH ICALC = 2
    X VALUES X VALUES START FROM LEFT SIDE LOOKING DOWNSTREAM

     SEGMENT NO.        X1        X2        X3        X4        X5        X6        X7        X8
            1      0.000E+00 2.000E+00 4.000E+00 6.000E+00 8.000E+00 1.000E+01 1.200E+01 1.400E+01

    Z VALUES ARE RELATIVE TO STREAMBED ELEVATION

     SEGMENT NO.          Z1        Z2        Z3        Z4        Z5        Z6        Z7        Z8
            1      6.000E+00 4.500E+00 3.500E+00 0.000E+00 3.000E-01 3.500E+00 4.500E+00 6.000E+00



 
 SOLVING FOR HEAD 
                                                   Max.-Head-Change                         Max.-Flux-Residual
  Residual-Control   Outer-Iter.   Inner-Iter.     Column Row Layer    Maximum-Head-Change  Column Row Layer    Maximum-Flux-Residual          L2-NORM 
          0                 1           2            55    5     1       0.8280592660E+00      50    3    1         0.2291030909E+00      0.3290604057E+00
          0                 2           2            55    5     1      -0.8095506292E-01      50    3    1        -0.2321978478E-01      0.3355041248E-01
          0                 3           2            55    5     1       0.7208196780E-02      50    3    1         0.2088525611E-02      0.3023882222E-02
          0                 4           2            55    5     1      -0.5721367421E-03      50    3    1        -0.1672998272E-03      0.2423320643E-03
          0                 5           1            55    5     1       0.3985588996E-04      50    3    1         0.1176096107E-04      0.1703696729E-04
          0                 6           1            55    5     1      -0.2393236817E-05      50    3    1        -0.7126675342E-06      0.1032368740E-05
          0                 7           1            55    5     1       0.1209271563E-06      50    3    1         0.3633895385E-07      0.5263964708E-07

    ------------------------------------------------
       NWT REQUIRED            7 OUTER ITERATIONS 
       AND A TOTAL OF         11 INNER ITERATIONS.
    ------------------------------------------------

 NO OUTPUT CONTROL FOR STRESS PERIOD   11   TIME STEP    1
 
 SOLVING FOR HEAD 
                                                   Max.-Head-Change                         Max.-Flux-Residual
  Residual-Control   Outer-Iter.   Inner-Iter.     Column Row Layer    Maximum-Head-Change  Column Row Layer    Maximum-Flux-Residual          L2-NORM 
          0                 1           2            55    5     1       0.6974891852E+00      55    5    1         0.1722362656E+00      0.2519134789E+00
          0                 2           2            55    5     1      -0.6712610481E-01      55    5    1        -0.1757640539E-01      0.2572035507E-01
          0                 3           2            55    5     1       0.5957446841E-02      55    5    1         0.1580283179E-02      0.2323928027E-02
          0                 4           2            55    5     1      -0.4727859564E-03      55    5    1        -0.1265916011E-03      0.1863640636E-03
          0                 5           1            55    5     1       0.3293498007E-04      55    5    1         0.8899201123E-05      0.1310418701E-04
          0                 6           1            55    5     1      -0.1977654321E-05      55    5    1        -0.5392567168E-06      0.7940926904E-06
          0                 7           1            55    5     1       0.9992831805E-07      55    5    1         0.2749675110E-07      0.4049112730E-07

    ------------------------------------------------
       NWT REQUIRED            7 OUTER ITERATIONS 
       AND A TOTAL OF         11 INNER ITERATIONS.
    ------------------------------------------------

 NO OUTPUT CONTROL FOR STRESS PERIOD   11   TIME STEP    2
 
 SOLVING FOR HEAD 
                                                   Max.-Head-Change                         Max.-Flux-Residual
  Residual-Control   Outer-Iter.   Inner-Iter.     Column Row Layer    Maximum-Head-Change  Column Row Layer    Maximum-Flux-Residual          L2-NORM 
          0                 1           2            55    5     1       0.5960277279E+00      55    5    1         0.1321066097E+00      0.2011067568E+00
          0                 2           2            55    5     1      -0.5645751844E-01      55    5    1        -0.1353396490E-01      0.2036462737E-01
          0                 3           2            55    5     1       0.4988125278E-02      55    5    1         0.1216427354E-02      0.1847207290E-02
          0                 4           2            55    5     1      -0.3956767324E-03      55    5    1        -0.9744641013E-04      0.1483194323E-03
          0                 5           1            55    5     1       0.2756335083E-04      55    5    1         0.6850322899E-05      0.1043226017E-04
          0                 6           1            55    5     1      -0.1655099077E-05      55    5    1        -0.4151028142E-06      0.6322178453E-06
          0                 7           1            55    5     1       0.8363011074E-07      55    5    1         0.2116613429E-07      0.3223703188E-07

    ------------------------------------------------
       NWT REQUIRED            7 OUTER ITERATIONS 
       AND A TOTAL OF         11 INNER ITERATIONS.
    ------------------------------------------------

 NO OUTPUT CONTROL FOR STRESS PERIOD   11   TIME STEP    3
 
 SOLVING FOR HEAD 
                                                   Max.-Head-Change                         Max.-Flux-Residual
  Residual-Control   Outer-Iter.   Inner-Iter.     Column Row Layer    Maximum-Head-Change  Column Row Layer    Maximum-Flux-Residual          L2-NORM 
          0                 1           2            55    5     1       0.5157729025E+00      55    5    1         0.1027176731E+00      0.1665267579E+00
          0                 2           2            55    5     1      -0.4812106884E-01      55    5    1        -0.1054162138E-01      0.1668749475E-01
          0                 3           2            55    5     1       0.4228629720E-02      55    5    1         0.9472734415E-03      0.1521238653E-02
          0                 4           2            55    5     1      -0.3351358870E-03      55    5    1        -0.7588569490E-04      0.1223965930E-03
          0                 5           1            55    5     1       0.2334511158E-04      55    5    1         0.5334635585E-05      0.8614085870E-05
          0                 6           1            55    5     1      -0.1401806440E-05      55    5    1        -0.3232581037E-06      0.5221082903E-06
          0                 7           1            55    5     1       0.7083150846E-07      55    5    1         0.1648296377E-07      0.2662295699E-07

    ------------------------------------------------
       NWT REQUIRED            7 OUTER ITERATIONS 
       AND A TOTAL OF         11 INNER ITERATIONS.
    ------------------------------------------------

 NO OUTPUT CONTROL FOR STRESS PERIOD   11   TIME STEP    4
 
 SOLVING FOR HEAD 
                                                   Max.-Head-Change                         Max.-Flux-Residual
  Residual-Control   Outer-Iter.   Inner-Iter.     Column Row Layer    Maximum-Head-Change  Column Row Layer    Maximum-Flux-Residual          L2-NORM 
          0                 1           2            55    5     1       0.4521482792E+00      55    5    1         0.8097495709E-01      0.1425212010E+00
          0                 2           2            55    5     1      -0.4160116559E-01      55    5    1        -0.8314746669E-02      0.1416166581E-01
          0                 3           2            55    5     1       0.3633557696E-02      55    5    1         0.7470739370E-03      0.1298319626E-02
          0                 4           2            55    5     1      -0.2875825542E-03      55    5    1        -0.5984798695E-04      0.1047666674E-03
          0                 5           1            55    5     1       0.2003011024E-04      55    5    1         0.4207211746E-05      0.7380883645E-05
          0                 6           1            55    5     1      -0.1202753645E-05      55    5    1        -0.2549406466E-06      0.4474904421E-06
          0                 7           1            55    5     1       0.6077345810E-07      55    5    1         0.1299944552E-07      0.2281926589E-07

    ------------------------------------------------
       NWT REQUIRED            7 OUTER ITERATIONS 
       AND A TOTAL OF         11 INNER ITERATIONS.
    ------------------------------------------------

 NO OUTPUT CONTROL FOR STRESS PERIOD   11   TIME STEP    5
 
 SOLVING FOR HEAD 
                                                   Max.-Head-Change                         Max.-Flux-Residual
  Residual-Control   Outer-Iter.   Inner-Iter.     Column Row Layer    Maximum-Head-Change  Column Row Layer    Maximum-Flux-Residual          L2-NORM 
          0                 1           2            55    5     1       0.4008321383E+00      55    5    1         0.6456942659E-01      0.1253815985E+00
          0                 2           2            55    5     1      -0.3641338809E-01      55    5    1        -0.6629371891E-02      0.1239392760E-01
          0                 3           2            55    5     1       0.3159568921E-02      55    5    1         0.5956110577E-03      0.1143107115E-02
          0                 4           2            55    5     1      -0.2496007172E-03      55    5    1        -0.4771420657E-04      0.9258612708E-04
          0                 5           1            55    5     1       0.1737986963E-04      55    5    1         0.3354229296E-05      0.6532835964E-05
          0                 6           1            55    5     1      -0.1043610250E-05      55    5    1        -0.2032532003E-06      0.3962677135E-06
          0                 7           1            55    5     1       0.5273195187E-07      55    5    1         0.1036389929E-07      0.2020929423E-07

    ------------------------------------------------
       NWT REQUIRED            7 OUTER ITERATIONS 
       AND A TOTAL OF         11 INNER ITERATIONS.
    ------------------------------------------------

 NO OUTPUT CONTROL FOR STRESS PERIOD   11   TIME STEP    6
 
 SOLVING FOR HEAD 
                                                   Max.-Head-Change                         Max.-Flux-Residual
  Residual-Control   Outer-Iter.   Inner-Iter.     Column Row Layer    Maximum-Head-Change  Column Row Layer    Maximum-Flux-Residual          L2-NORM 
          0                 1           2            55    5     1       0.3595647313E+00      55    5    1         0.5210785068E-01      0.1129547545E+00
          0                 2           2            55    5     1      -0.3229180318E-01      55    5    1        -0.5347684573E-02      0.1114049418E-01
          0                 3           2            55    5     1       0.2782501026E-02      55    5    1         0.4804529276E-03      0.1033720512E-02
          0                 4           2            55    5     1      -0.2192826499E-03      55    5    1        -0.3848870577E-04      0.8409494085E-04
          0                 5           1            55    5     1       0.1526140725E-04      55    5    1         0.2705694248E-05      0.5946240195E-05
          0                 6           1            55    5     1      -0.9163765684E-06      55    5    1        -0.1639544959E-06      0.3609615713E-06

    ------------------------------------------------
       NWT REQUIRED            6 OUTER ITERATIONS 
       AND A TOTAL OF         10 INNER ITERATIONS.
    ------------------------------------------------

 NO OUTPUT CONTROL FOR STRESS PERIOD   11   TIME STEP    7
 
 SOLVING FOR HEAD 
                                                   Max.-Head-Change                         Max.-Flux-Residual
  Residual-Control   Outer-Iter.   Inner-Iter.     Column Row Layer    Maximum-Head-Change  Column Row Layer    Maximum-Flux-Residual          L2-NORM 
          0                 1           2            55    5     1       0.3264549579E+00      55    5    1         0.4256468186E-01      0.1037747226E+00
          0                 2           2            55    5     1      -0.2901817676E-01      55    5    1        -0.4366158789E-02      0.1023216111E-01
          0                 3           2            55    5     1       0.2482374959E-02      55    5    1         0.3922740776E-03      0.9549988612E-03
          0                 4           2            55    5     1      -0.1950504566E-03      55    5    1        -0.3142453217E-04      0.7807612838E-04
          0                 5           1            55    5     1       0.1356478664E-04      55    5    1         0.2209096492E-05      0.5535543920E-05
          0                 6           1            55    5     1      -0.8144332612E-06      55    5    1        -0.1338626019E-06      0.3364059148E-06

    ------------------------------------------------
       NWT REQUIRED            6 OUTER ITERATIONS 
       AND A TOTAL OF         10 INNER ITERATIONS.
    ------------------------------------------------

 NO OUTPUT CONTROL FOR STRESS PERIOD   11   TIME STEP    8
 
 SOLVING FOR HEAD 
                                                   Max.-Head-Change                         Max.-Flux-Residual
  Residual-Control   Outer-Iter.   Inner-Iter.     Column Row Layer    Maximum-Head-Change  Column Row Layer    Maximum-Flux-Residual          L2-NORM 
          0                 1           2            55    5     1       0.2995322187E+00      55    5    1         0.3512024191E-01      0.9678913318E-01
          0                 2           2            55    5     1      -0.2637641074E-01      55    5    1        -0.3600885495E-02      0.9550634373E-02
          0                 3           2            55    5     1       0.2239493996E-02      55    5    1         0.3235262891E-03      0.8964637877E-03
          0                 4           2            55    5     1      -0.1753447600E-03      55    5    1        -0.2591702624E-04      0.7368913448E-04
          0                 5           1            55    5     1       0.1218149774E-04      55    5    1         0.1821929373E-05      0.5241373803E-05
          0                 6           1            55    5     1      -0.7312458209E-06      55    5    1        -0.1104017779E-06      0.3190022670E-06

    ------------------------------------------------
       NWT REQUIRED            6 OUTER ITERATIONS 
       AND A TOTAL OF         10 INNER ITERATIONS.
    ------------------------------------------------

 NO OUTPUT CONTROL FOR STRESS PERIOD   11   TIME STEP    9
 
 SOLVING FOR HEAD 
                                                   Max.-Head-Change                         Max.-Flux-Residual
  Residual-Control   Outer-Iter.   Inner-Iter.     Column Row Layer    Maximum-Head-Change  Column Row Layer    Maximum-Flux-Residual          L2-NORM 
          0                 1           2            55    5     1       0.2781081899E+00      55    5    1         0.2933181989E-01      0.9134854768E-01
          0                 2           2            55    5     1      -0.2441043452E-01      55    5    1        -0.3006525761E-02      0.9021513177E-02
          0                 3           2            55    5     1       0.2054002295E-02      55    5    1         0.2701138542E-03      0.8511337651E-03
          0                 4           2            55    5     1      -0.1598154662E-03      55    5    1        -0.2163821985E-04      0.7040449268E-04
          0                 5           1            55    5     1       0.1107362286E-04      55    5    1         0.1521136894E-05      0.5028433694E-05
          0                 6           1            55    5     1      -0.6642852115E-06      55    5    1        -0.9217492214E-07      0.3066681559E-06

    ------------------------------------------------
       NWT REQUIRED            6 OUTER ITERATIONS 
       AND A TOTAL OF         10 INNER ITERATIONS.
    ------------------------------------------------

 NO OUTPUT CONTROL FOR STRESS PERIOD   11   TIME STEP   10
 
 SOLVING FOR HEAD 
                                                   Max.-Head-Change                         Max.-Flux-Residual
  Residual-Control   Outer-Iter.   Inner-Iter.     Column Row Layer    Maximum-Head-Change  Column Row Layer    Maximum-Flux-Residual          L2-NORM 
          0                 1           2            55    5     1       0.2607022047E+00      55    5    1         0.2478540866E-01      0.8701666682E-01
          0                 2           2            55    5     1      -0.2274248817E-01      55    5    1        -0.2540314685E-02      0.8604356316E-02
          0                 3           2            55    5     1       0.1900027052E-02      55    5    1         0.2282317042E-03      0.8160399297E-03
          0                 4           2            55    5     1      -0.1471599015E-03      55    5    1        -0.1828301423E-04      0.6790526617E-04
          0                 5           1            55    5     1       0.1017610767E-04      55    5    1         0.1285271938E-05      0.4870640208E-05
          0                 6           1            55    5     1      -0.6100485322E-06      55    5    1        -0.7788242362E-07      0.2977478651E-06

    ------------------------------------------------
       NWT REQUIRED            6 OUTER ITERATIONS 
       AND A TOTAL OF         10 INNER ITERATIONS.
    ------------------------------------------------

 NO OUTPUT CONTROL FOR STRESS PERIOD   11   TIME STEP   11
 
 SOLVING FOR HEAD 
                                                   Max.-Head-Change                         Max.-Flux-Residual
  Residual-Control   Outer-Iter.   Inner-Iter.     Column Row Layer    Maximum-Head-Change  Column Row Layer    Maximum-Flux-Residual          L2-NORM 
          0                 1           2            55    5     1       0.2472278710E+00      55    5    1         0.2110448624E-01      0.8351079877E-01
          0                 2           2            55    5     1      -0.2140209529E-01      55    5    1        -0.2163428678E-02      0.8262699990E-02
          0                 3           2            55    5     1       0.1773499674E-02      55    5    1         0.1943681432E-03      0.7876691143E-03
          0                 4           2            55    6     1      -0.1382773352E-03      55    5    1        -0.1557022538E-04      0.6595372025E-04
          0                 5           1            55    6     1       0.9611684756E-05      55    5    1         0.1094567492E-05      0.4753066844E-05
          0                 6           1            55    6     1      -0.5766841258E-06      55    5    1        -0.6632647787E-07      0.2913694042E-06

    ------------------------------------------------
       NWT REQUIRED            6 OUTER ITERATIONS 
       AND A TOTAL OF         10 INNER ITERATIONS.
    ------------------------------------------------

 NO OUTPUT CONTROL FOR STRESS PERIOD   11   TIME STEP   12
 
 SOLVING FOR HEAD 
                                                   Max.-Head-Change                         Max.-Flux-Residual
  Residual-Control   Outer-Iter.   Inner-Iter.     Column Row Layer    Maximum-Head-Change  Column Row Layer    Maximum-Flux-Residual          L2-NORM 
          0                 1           2            55    5     1       0.2370803697E+00      55    5    1         0.1821305326E-01      0.8061483415E-01
          0                 2           2            55    5     1      -0.2038994851E-01      55    5    1        -0.1868060956E-02      0.7982090393E-02
          0                 3           2            55    6     1       0.1713302520E-02      55    5    1         0.1678241245E-03      0.7646767493E-03
          0                 4           2            55    6     1      -0.1348687737E-03      55    5    1        -0.1344384397E-04      0.6443522278E-04
          0                 5           1            55    6     1       0.9367546460E-05      55    5    1         0.9450862186E-06      0.4667333450E-05
          0                 6           1            55    6     1      -0.5618083366E-06      55    5    1        -0.5726849739E-07      0.2870245293E-06

    ------------------------------------------------
       NWT REQUIRED            6 OUTER ITERATIONS 
       AND A TOTAL OF         10 INNER ITERATIONS.
    ------------------------------------------------

 NO OUTPUT CONTROL FOR STRESS PERIOD   11   TIME STEP   13
 
 SOLVING FOR HEAD 
                                                   Max.-Head-Change                         Max.-Flux-Residual
  Residual-Control   Outer-Iter.   Inner-Iter.     Column Row Layer    Maximum-Head-Change  Column Row Layer    Maximum-Flux-Residual          L2-NORM 
          0                 1           2            55    5     1       0.2296091468E+00      55    5    1         0.1590040637E-01      0.7816990104E-01
          0                 2           2            55    5     1      -0.1963236497E-01      55    5    1        -0.1632377765E-02      0.7744965959E-02
          0                 3           2            55    6     1       0.1674267792E-02      55    5    1         0.1466390578E-03      0.7455048086E-03
          0                 4           2            55    6     1      -0.1315472962E-03      55    5    1        -0.1174679519E-04      0.6322375127E-04
          0                 5           1            55    6     1       0.9127913265E-05      55    5    1         0.8257861152E-06      0.4604331055E-05
          0                 6           1            55    6     1      -0.5471289787E-06      55    5    1        -0.5003937742E-07      0.2841483148E-06

    ------------------------------------------------
       NWT REQUIRED            6 OUTER ITERATIONS 
       AND A TOTAL OF         10 INNER ITERATIONS.
    ------------------------------------------------

 NO OUTPUT CONTROL FOR STRESS PERIOD   11   TIME STEP   14
 
 SOLVING FOR HEAD 
                                                   Max.-Head-Change                         Max.-Flux-Residual
  Residual-Control   Outer-Iter.   Inner-Iter.     Column Row Layer    Maximum-Head-Change  Column Row Layer    Maximum-Flux-Residual          L2-NORM 
          0                 1           2            55    5     1       0.2240619872E+00      55    5    1         0.1399272751E-01      0.7605869075E-01
          0                 2           2            55    5     1      -0.1905312932E-01      55    5    1        -0.1438319641E-02      0.7539328005E-02
          0                 3           2            50    1     1       0.1645071814E-02      55    5    1         0.1291922139E-03      0.7290111868E-03
          0                 4           2            50    1     1      -0.1298950093E-03      55    5    1        -0.1034922864E-04      0.6222275132E-04
          0                 5           1            50    1     1       0.9028621322E-05      55    5    1         0.7275390089E-06      0.4557052344E-05
          0                 6           1            50    1     1      -0.5413056287E-06      55    5    1        -0.4408598830E-07      0.2823155737E-06

    ------------------------------------------------
       NWT REQUIRED            6 OUTER ITERATIONS 
       AND A TOTAL OF         10 INNER ITERATIONS.
    ------------------------------------------------

 NO OUTPUT CONTROL FOR STRESS PERIOD   11   TIME STEP   15
 
 SOLVING FOR HEAD 
                                                   Max.-Head-Change                         Max.-Flux-Residual
  Residual-Control   Outer-Iter.   Inner-Iter.     Column Row Layer    Maximum-Head-Change  Column Row Layer    Maximum-Flux-Residual          L2-NORM 
          0                 1           2            55    5     1       0.2202754175E+00      55    5    1         0.1241844828E-01      0.7423818180E-01
          0                 2           2            55    5     1      -0.1863742925E-01      55    5    1        -0.1278530320E-02      0.7356883548E-02
          0                 3           2            50    1     1       0.1629222855E-02      55    5    1         0.1148229268E-03      0.7141614901E-03
          0                 4           2            50    1     1      -0.1284583756E-03      55    5    1        -0.9198215540E-05      0.6134140209E-04
          0                 5           1            50    1     1       0.8921588681E-05      55    5    1         0.6466241179E-06      0.4519243848E-05
          0                 6           1            50    1     1      -0.5345395370E-06      55    5    1        -0.3918286373E-07      0.2811720847E-06

    ------------------------------------------------
       NWT REQUIRED            6 OUTER ITERATIONS 
       AND A TOTAL OF         10 INNER ITERATIONS.
    ------------------------------------------------

 NO OUTPUT CONTROL FOR STRESS PERIOD   11   TIME STEP   16
 
 SOLVING FOR HEAD 
                                                   Max.-Head-Change                         Max.-Flux-Residual
  Residual-Control   Outer-Iter.   Inner-Iter.     Column Row Layer    Maximum-Head-Change  Column Row Layer    Maximum-Flux-Residual          L2-NORM 
          0                 1           2            55    5     1       0.2179956185E+00      55    5    1         0.1110565385E-01      0.7275217240E-01
          0                 2           2            50    1     1      -0.1838109045E-01      55    5    1        -0.1145579381E-02      0.7193560279E-02
          0                 3           2            50    1     1       0.1612587153E-02      55    5    1         0.1028641585E-03      0.7003431211E-03
          0                 4           2            50    1     1      -0.1269216018E-03      55    5    1        -0.8240315201E-05      0.6052852419E-04
          0                 5           1            50    1     1       0.8805650242E-05      55    5    1         0.5792846804E-06      0.4487577868E-05
          0                 6           1            50    1     1      -0.5271172668E-06      55    5    1        -0.3510235891E-07      0.2805376597E-06

    ------------------------------------------------
       NWT REQUIRED            6 OUTER ITERATIONS 
       AND A TOTAL OF         10 INNER ITERATIONS.
    ------------------------------------------------

 NO OUTPUT CONTROL FOR STRESS PERIOD   11   TIME STEP   17
 
 SOLVING FOR HEAD 
                                                   Max.-Head-Change                         Max.-Flux-Residual
  Residual-Control   Outer-Iter.   Inner-Iter.     Column Row Layer    Maximum-Head-Change  Column Row Layer    Maximum-Flux-Residual          L2-NORM 
          0                 1           2            55    5     1       0.2168742794E+00      55    5    1         0.9983627925E-02      0.7159579262E-01
          0                 2           2            50    1     1      -0.1826541309E-01      55    5    1        -0.1032121410E-02      0.7060611648E-02
          0                 3           2            50    1     1       0.1597519916E-02      55    5    1         0.9265700672E-04      0.6889590310E-03
          0                 4           2            50    1     1      -0.1254670690E-03      55    5    1        -0.7422735449E-05      0.5989960484E-04
          0                 5           1            50    1     1       0.8693149608E-05      55    5    1         0.5218095389E-06      0.4469641500E-05
          0                 6           1            50    1     1      -0.5197411920E-06      55    5    1        -0.3161959272E-07      0.2808227175E-06

    ------------------------------------------------
       NWT REQUIRED            6 OUTER ITERATIONS 
       AND A TOTAL OF         10 INNER ITERATIONS.
    ------------------------------------------------

 NO OUTPUT CONTROL FOR STRESS PERIOD   11   TIME STEP   18
 
 SOLVING FOR HEAD 
                                                   Max.-Head-Change                         Max.-Flux-Residual
  Residual-Control   Outer-Iter.   Inner-Iter.     Column Row Layer    Maximum-Head-Change  Column Row Layer    Maximum-Flux-Residual          L2-NORM 
          0                 1           2            50    3     1       0.2182148845E+00      55    5    1         0.9044697829E-02      0.7071219794E-01
          0                 2           2            51    1     1      -0.1832907750E-01      55    5    1        -0.9374688163E-03      0.6954390609E-02
          0                 3           2            51    1     1       0.1600947042E-02      55    5    1         0.8413900340E-04      0.6792788260E-03
          0                 4           2            51    1     1      -0.1256377416E-03      55    5    1        -0.6740475499E-05      0.5937122521E-04
          0                 5           1            51    1     1       0.8701447236E-05      50    4    1        -0.4765596859E-06      0.4459097675E-05
          0                 6           1            51    1     1      -0.5205022474E-06      66    4    1        -0.3155362371E-07      0.2816602698E-06

    ------------------------------------------------
       NWT REQUIRED            6 OUTER ITERATIONS 
       AND A TOTAL OF         10 INNER ITERATIONS.
    ------------------------------------------------

 NO OUTPUT CONTROL FOR STRESS PERIOD   11   TIME STEP   19
 
 SOLVING FOR HEAD 
                                                   Max.-Head-Change                         Max.-Flux-Residual
  Residual-Control   Outer-Iter.   Inner-Iter.     Column Row Layer    Maximum-Head-Change  Column Row Layer    Maximum-Flux-Residual          L2-NORM 
          0                 1           3            50    3     1       0.2207965508E+00      50    3    1         0.8281015201E-02      0.7001086663E-01
          0                 2           2            51    1     1      -0.1914869724E-01      50    3    1        -0.8587530451E-03      0.6870896399E-02
          0                 3           2            51    1     1       0.1666610570E-02      50    3    1         0.7706425077E-04      0.6716100450E-03
          0                 4           2            51    1     1      -0.1304468781E-03      50    3    1        -0.6173773233E-05      0.5898698693E-04
          0                 5           1            51    1     1       0.9018471692E-05      66    4    1         0.4832665397E-06      0.4458151547E-05
          0                 6           1            51    1     1      -0.5385953043E-06      66    4    1        -0.3244395508E-07      0.2830432932E-06

    ------------------------------------------------
       NWT REQUIRED            6 OUTER ITERATIONS 
       AND A TOTAL OF         11 INNER ITERATIONS.
    ------------------------------------------------

 NO OUTPUT CONTROL FOR STRESS PERIOD   11   TIME STEP   20
 
 SOLVING FOR HEAD 
                                                   Max.-Head-Change                         Max.-Flux-Residual
  Residual-Control   Outer-Iter.   Inner-Iter.     Column Row Layer    Maximum-Head-Change  Column Row Layer    Maximum-Flux-Residual          L2-NORM 
          0                 1           3            50    3     1       0.2242410868E+00      50    3    1         0.7609169340E-02      0.6937439079E-01
          0                 2           2            51    1     1      -0.1999919824E-01      50    3    1        -0.7916079649E-03      0.6802850810E-02
          0                 3           2            51    1     1       0.1733862678E-02      50    3    1         0.7101715951E-04      0.6654135152E-03
          0                 4           2            51    1     1      -0.1352998763E-03      50    3    1        -0.5689465594E-05      0.5870224763E-04
          0                 5           1            51    1     1       0.9333809570E-05      65    4    1         0.4823222657E-06      0.4463240624E-05
          0                 6           1            51    1     1      -0.5562401553E-06      68    4    1        -0.3288252159E-07      0.2846997490E-06

    ------------------------------------------------
       NWT REQUIRED            6 OUTER ITERATIONS 
       AND A TOTAL OF         11 INNER ITERATIONS.
    ------------------------------------------------

 NO OUTPUT CONTROL FOR STRESS PERIOD   11   TIME STEP   21
 
 SOLVING FOR HEAD 
                                                   Max.-Head-Change                         Max.-Flux-Residual
  Residual-Control   Outer-Iter.   Inner-Iter.     Column Row Layer    Maximum-Head-Change  Column Row Layer    Maximum-Flux-Residual          L2-NORM 
          0                 1           3            50    3     1       0.2287798088E+00      50    3    1         0.7034182625E-02      0.6872831895E-01
          0                 2           2            51    1     1      -0.2089402545E-01      50    3    1        -0.7344606231E-03      0.6738953659E-02
          0                 3           2            51    1     1       0.1803827971E-02      50    3    1         0.6586791704E-04      0.6594943091E-03
          0                 4           2            51    1     1      -0.1402776183E-03      65    4    1        -0.5535593921E-05      0.5841056884E-04
          0                 5           1            51    1     1       0.9652349442E-05      67    4    1         0.4829568176E-06      0.4466029048E-05
          0                 6           1            51    1     1      -0.5736476258E-06      68    4    1        -0.3354387879E-07      0.2860560770E-06

    ------------------------------------------------
       NWT REQUIRED            6 OUTER ITERATIONS 
       AND A TOTAL OF         11 INNER ITERATIONS.
    ------------------------------------------------

 NO OUTPUT CONTROL FOR STRESS PERIOD   11   TIME STEP   22
 
 SOLVING FOR HEAD 
                                                   Max.-Head-Change                         Max.-Flux-Residual
  Residual-Control   Outer-Iter.   Inner-Iter.     Column Row Layer    Maximum-Head-Change  Column Row Layer    Maximum-Flux-Residual          L2-NORM 
          0                 1           3            50    3     1       0.2341103129E+00      50    3    1         0.6516794885E-02      0.6805219016E-01
          0                 2           2            51    1     1      -0.2183786176E-01      50    3    1        -0.6831979793E-03      0.6668511388E-02
          0                 3           2            51    1     1       0.1876893380E-02      50    3    1         0.6124784088E-04      0.6524626868E-03
          0                 4           2            51    1     1      -0.1454048238E-03      51    4    1         0.5497444832E-05      0.5798277820E-04
          0                 5           1            51    1     1       0.9975108841E-05      68    4    1         0.4860811380E-06      0.4456786826E-05
          0                 6           1            51    1     1      -0.5907598444E-06      68    4    1        -0.3422462314E-07      0.2864734340E-06

    ------------------------------------------------
       NWT REQUIRED            6 OUTER ITERATIONS 
       AND A TOTAL OF         11 INNER ITERATIONS.
    ------------------------------------------------

 NO OUTPUT CONTROL FOR STRESS PERIOD   11   TIME STEP   23
 
 SOLVING FOR HEAD 
                                                   Max.-Head-Change                         Max.-Flux-Residual
  Residual-Control   Outer-Iter.   Inner-Iter.     Column Row Layer    Maximum-Head-Change  Column Row Layer    Maximum-Flux-Residual          L2-NORM 
          0                 1           3            52    1     1       0.2442601368E+00      50    3    1         0.6070611817E-02      0.6735154556E-01
          0                 2           2            52    1     1      -0.2290266167E-01      50    3    1        -0.6393571123E-03      0.6597272219E-02
          0                 3           2            52    1     1       0.1958111482E-02      50    3    1         0.5731463077E-04      0.6458349098E-03
          0                 4           2            52    1     1      -0.1511017015E-03      50    4    1         0.6034123484E-05      0.5757213035E-04
          0                 5           1            52    1     1       0.1033517630E-04      50    4    1        -0.4849849116E-06      0.4445381431E-05
          0                 6           1            52    1     1      -0.6077964074E-06      68    4    1        -0.3430046469E-07      0.2864027749E-06

    ------------------------------------------------
       NWT REQUIRED            6 OUTER ITERATIONS 
       AND A TOTAL OF         11 INNER ITERATIONS.
    ------------------------------------------------

 NO OUTPUT CONTROL FOR STRESS PERIOD   11   TIME STEP   24
 
 SOLVING FOR HEAD 
                                                   Max.-Head-Change                         Max.-Flux-Residual
  Residual-Control   Outer-Iter.   Inner-Iter.     Column Row Layer    Maximum-Head-Change  Column Row Layer    Maximum-Flux-Residual          L2-NORM 
          0                 1           3            52    1     1       0.2638902206E+00      52    1    1         0.5694219436E-02      0.6659451699E-01
          0                 2           2            52    1     1      -0.2429728686E-01      50    3    1        -0.6011346873E-03      0.6539762528E-02
          0                 3           2            52    1     1       0.2057115541E-02      52    4    1        -0.6282475660E-04      0.6435680510E-03
          0                 4           2            52    1     1      -0.1583394459E-03      52    4    1         0.6640281291E-05      0.5753028318E-04
          0                 5           1            52    1     1       0.1084226829E-04      52    4    1        -0.5239773964E-06      0.4451103145E-05
          0                 6           1            52    1     1      -0.6372209439E-06      68    4    1        -0.3474702481E-07      0.2865562921E-06

    ------------------------------------------------
       NWT REQUIRED            6 OUTER ITERATIONS 
       AND A TOTAL OF         11 INNER ITERATIONS.
    ------------------------------------------------

 NO OUTPUT CONTROL FOR STRESS PERIOD   11   TIME STEP   25
 
 SOLVING FOR HEAD 
                                                   Max.-Head-Change                         Max.-Flux-Residual
  Residual-Control   Outer-Iter.   Inner-Iter.     Column Row Layer    Maximum-Head-Change  Column Row Layer    Maximum-Flux-Residual          L2-NORM 
          0                 1           3            52    1     1       0.2836660408E+00      52    2    1         0.5601877511E-02      0.6575817860E-01
          0                 2           2            52    1     1      -0.2598132012E-01      50    3    1        -0.5708904328E-03      0.6458871418E-02
          0                 3           2            52    1     1       0.2187353495E-02      52    4    1        -0.6221684828E-04      0.6352663358E-03
          0                 4           2            52    1     1      -0.1675063288E-03      52    4    1         0.6720442822E-05      0.5692186352E-04
          0                 5           1            52    1     1       0.1142223100E-04      52    4    1        -0.5385700448E-06      0.4422055739E-05
          0                 6           1            53    7     1      -0.6679829514E-06      68    4    1        -0.3541111582E-07      0.2849200299E-06

    ------------------------------------------------
       NWT REQUIRED            6 OUTER ITERATIONS 
       AND A TOTAL OF         11 INNER ITERATIONS.
    ------------------------------------------------

 NO OUTPUT CONTROL FOR STRESS PERIOD   11   TIME STEP   26
 
 SOLVING FOR HEAD 
                                                   Max.-Head-Change                         Max.-Flux-Residual
  Residual-Control   Outer-Iter.   Inner-Iter.     Column Row Layer    Maximum-Head-Change  Column Row Layer    Maximum-Flux-Residual          L2-NORM 
          0                 1           3            52    1     1       0.3018896639E+00      52    3    1         0.5489362175E-02      0.6476667747E-01
          0                 2           2            52    1     1      -0.2756503467E-01      52    3    1        -0.5538248839E-03      0.6366220442E-02
          0                 3           2            52    1     1       0.2308500404E-02      52    4    1        -0.6246884365E-04      0.6257213398E-03
          0                 4           2            52    1     1      -0.1758845706E-03      52    4    1         0.6806869060E-05      0.5618002422E-04
          0                 5           1            52    1     1       0.1193937793E-04      52    4    1        -0.5509140997E-06      0.4381041014E-05
          0                 6           1            53    7     1      -0.6948051133E-06      52    4    1         0.3561423378E-07      0.2820656754E-06

    ------------------------------------------------
       NWT REQUIRED            6 OUTER ITERATIONS 
       AND A TOTAL OF         11 INNER ITERATIONS.
    ------------------------------------------------

 NO OUTPUT CONTROL FOR STRESS PERIOD   11   TIME STEP   27
 
 SOLVING FOR HEAD 
                                                   Max.-Head-Change                         Max.-Flux-Residual
  Residual-Control   Outer-Iter.   Inner-Iter.     Column Row Layer    Maximum-Head-Change  Column Row Layer    Maximum-Flux-Residual          L2-NORM 
          0                 1           3            52    1     1       0.3173479243E+00      52    2    1         0.5302159319E-02      0.6359252537E-01
          0                 2           3            52    1     1      -0.2893245671E-01      52    2    1        -0.5352453157E-03      0.6256949444E-02
          0                 3           2            52    1     1       0.2411683306E-02      52    4    1        -0.6067306357E-04      0.6143657182E-03
          0                 4           2            52    1     1      -0.1827690792E-03      52    4    1         0.6706714075E-05      0.5525364757E-04
          0                 5           1            52    1     1       0.1234038189E-04      52    4    1        -0.5502153959E-06      0.4324780487E-05
          0                 6           1            53    7     1      -0.7126567944E-06      52    4    1         0.3596498654E-07      0.2778534578E-06

    ------------------------------------------------
       NWT REQUIRED            6 OUTER ITERATIONS 
       AND A TOTAL OF         12 INNER ITERATIONS.
    ------------------------------------------------

 NO OUTPUT CONTROL FOR STRESS PERIOD   11   TIME STEP   28
 
 SOLVING FOR HEAD 
                                                   Max.-Head-Change                         Max.-Flux-Residual
  Residual-Control   Outer-Iter.   Inner-Iter.     Column Row Layer    Maximum-Head-Change  Column Row Layer    Maximum-Flux-Residual          L2-NORM 
          0                 1           3            52    1     1       0.3286828566E+00      52    1    1         0.5065224593E-02      0.6223571222E-01
          0                 2           3            52    1     1      -0.2994861632E-01      52    1    1        -0.5120464724E-03      0.6127900720E-02
          0                 3           2            52    1     1       0.2486379917E-02      52    4    1        -0.5812103609E-04      0.6009728078E-03
          0                 4           2            52    1     1      -0.1874722370E-03      52    4    1         0.6497829627E-05      0.5412963536E-04
          0                 5           1            52    1     1       0.1258625246E-04      52    4    1        -0.5398020573E-06      0.4252079754E-05
          0                 6           1            53    7     1      -0.7196992744E-06      52    4    1         0.3567905771E-07      0.2721506013E-06

    ------------------------------------------------
       NWT REQUIRED            6 OUTER ITERATIONS 
       AND A TOTAL OF         12 INNER ITERATIONS.
    ------------------------------------------------

 NO OUTPUT CONTROL FOR STRESS PERIOD   11   TIME STEP   29
 
 SOLVING FOR HEAD 
                                                   Max.-Head-Change                         Max.-Flux-Residual
  Residual-Control   Outer-Iter.   Inner-Iter.     Column Row Layer    Maximum-Head-Change  Column Row Layer    Maximum-Flux-Residual          L2-NORM 
          0                 1           3            52    1     1       0.3356609915E+00      52    1    1         0.4769338506E-02      0.6076212722E-01
          0                 2           3            52    1     1      -0.3058625100E-01      52    1    1        -0.4830582266E-03      0.5978771543E-02
          0                 3           2            52    1     1       0.2530032662E-02      52    4    1        -0.5347364793E-04      0.5854188398E-03
          0                 4           2            52    1     1      -0.1897540259E-03      52    4    1         0.6094642545E-05      0.5280307954E-04
          0                 5           1            52    1     1       0.1265661460E-04      52    4    1        -0.5148524735E-06      0.4163208449E-05
          0                 6           1            53    7     1      -0.7144009247E-06      68    4    1        -0.3478843169E-07      0.2649853811E-06

    ------------------------------------------------
       NWT REQUIRED            6 OUTER ITERATIONS 
       AND A TOTAL OF         12 INNER ITERATIONS.
    ------------------------------------------------

 NO OUTPUT CONTROL FOR STRESS PERIOD   11   TIME STEP   30



 STREAM LISTING     PERIOD     11   STEP       30

 LAYER ROW COL. STREAM  RCH.   FLOW INTO    STREAM     FLOW OUT OF   OVRLND.    DIRECT     STREAM      STREAM      STREAM     STREAM  STREAMBED   FLOW TO   CHNG. UNSAT. 
                SEG.NO.  NO.   STRM. RCH.    LOSS       STRM. RCH.   RUNOFF     PRECIP       ET         HEAD        DEPTH      WIDTH  CONDCTNC.   WAT. TAB.

   1    4    1     1     1    3.3840E+00  1.2828E-03   3.3827E+00  0.000E+00  0.000E+00  0.000E+00  1.41228E+02  1.378E+00  3.461E+00  6.832E-04  1.539E-03 -2.566E-04
   1    4    2     1     2    3.3827E+00  1.2825E-03   3.3814E+00  0.000E+00  0.000E+00  0.000E+00  1.40927E+02  1.377E+00  3.460E+00  6.831E-04  1.529E-03 -2.466E-04
   1    4    3     1     3    3.3814E+00  1.2821E-03   3.3802E+00  0.000E+00  0.000E+00  0.000E+00  1.40627E+02  1.377E+00  3.460E+00  6.830E-04  1.519E-03 -2.372E-04
   1    4    4     1     4    3.3802E+00  1.2818E-03   3.3789E+00  0.000E+00  0.000E+00  0.000E+00  1.40327E+02  1.377E+00  3.460E+00  6.829E-04  1.518E-03 -2.358E-04
   1    4    5     1     5    3.3789E+00  1.2814E-03   3.3776E+00  0.000E+00  0.000E+00  0.000E+00  1.40027E+02  1.377E+00  3.460E+00  6.828E-04  1.516E-03 -2.341E-04
   1    4    6     1     6    3.3776E+00  1.2811E-03   3.3763E+00  0.000E+00  0.000E+00  0.000E+00  1.39726E+02  1.376E+00  3.459E+00  6.828E-04  1.513E-03 -2.320E-04
   1    4    7     1     7    3.3763E+00  1.2807E-03   3.3750E+00  0.000E+00  0.000E+00  0.000E+00  1.39426E+02  1.376E+00  3.459E+00  6.827E-04  1.510E-03 -2.297E-04
   1    4    8     1     8    3.3750E+00  1.2804E-03   3.3737E+00  0.000E+00  0.000E+00  0.000E+00  1.39126E+02  1.376E+00  3.459E+00  6.826E-04  1.507E-03 -2.270E-04
   1    4    9     1     9    3.3737E+00  1.2800E-03   3.3725E+00  0.000E+00  0.000E+00  0.000E+00  1.38826E+02  1.376E+00  3.458E+00  6.825E-04  1.504E-03 -2.239E-04
   1    4   10     1    10    3.3725E+00  1.2797E-03   3.3712E+00  0.000E+00  0.000E+00  0.000E+00  1.38525E+02  1.375E+00  3.458E+00  6.824E-04  1.500E-03 -2.205E-04
   1    4   11     1    11    3.3712E+00  1.2793E-03   3.3699E+00  0.000E+00  0.000E+00  0.000E+00  1.38225E+02  1.375E+00  3.458E+00  6.823E-04  1.496E-03 -2.167E-04
   1    4   12     1    12    3.3699E+00  1.2790E-03   3.3686E+00  0.000E+00  0.000E+00  0.000E+00  1.37925E+02  1.375E+00  3.457E+00  6.822E-04  1.492E-03 -2.126E-04
   1    4   13     1    13    3.3686E+00  1.2786E-03   3.3674E+00  0.000E+00  0.000E+00  0.000E+00  1.37624E+02  1.374E+00  3.457E+00  6.821E-04  1.487E-03 -2.082E-04
   1    4   14     1    14    3.3674E+00  1.2783E-03   3.3661E+00  0.000E+00  0.000E+00  0.000E+00  1.37324E+02  1.374E+00  3.457E+00  6.821E-04  1.482E-03 -2.033E-04
   1    4   15     1    15    3.3661E+00  1.2779E-03   3.3648E+00  0.000E+00  0.000E+00  0.000E+00  1.37024E+02  1.374E+00  3.456E+00  6.820E-04  1.476E-03 -1.982E-04
   1    4   16     1    16    3.3648E+00  1.2776E-03   3.3635E+00  0.000E+00  0.000E+00  0.000E+00  1.36724E+02  1.374E+00  3.456E+00  6.819E-04  1.470E-03 -1.927E-04
   1    4   17     1    17    3.3635E+00  1.2772E-03   3.3622E+00  0.000E+00  0.000E+00  0.000E+00  1.36423E+02  1.373E+00  3.456E+00  6.818E-04  1.464E-03 -1.868E-04
   1    4   18     1    18    3.3622E+00  1.2769E-03   3.3610E+00  0.000E+00  0.000E+00  0.000E+00  1.36123E+02  1.373E+00  3.455E+00  6.817E-04  1.457E-03 -1.806E-04
   1    4   19     1    19    3.3610E+00  1.2765E-03   3.3597E+00  0.000E+00  0.000E+00  0.000E+00  1.35823E+02  1.373E+00  3.455E+00  6.816E-04  1.460E-03 -1.833E-04
   1    4   20     1    20    3.3597E+00  1.2762E-03   3.3584E+00  0.000E+00  0.000E+00  0.000E+00  1.35523E+02  1.373E+00  3.455E+00  6.815E-04  1.465E-03 -1.887E-04
   1    4   21     1    21    3.3584E+00  1.2758E-03   3.3571E+00  0.000E+00  0.000E+00  0.000E+00  1.35222E+02  1.372E+00  3.454E+00  6.814E-04  1.471E-03 -1.956E-04
   1    4   22     1    22    3.3571E+00  1.2755E-03   3.3559E+00  0.000E+00  0.000E+00  0.000E+00  1.34922E+02  1.372E+00  3.454E+00  6.813E-04  1.480E-03 -2.043E-04
   1    4   23     1    23    3.3559E+00  1.2751E-03   3.3546E+00  0.000E+00  0.000E+00  0.000E+00  1.34622E+02  1.372E+00  3.454E+00  6.813E-04  1.475E-03 -1.999E-04
   1    4   24     1    24    3.3546E+00  1.2748E-03   3.3533E+00  0.000E+00  0.000E+00  0.000E+00  1.34321E+02  1.371E+00  3.453E+00  6.812E-04  1.466E-03 -1.917E-04
   1    4   25     1    25    3.3533E+00  1.2744E-03   3.3520E+00  0.000E+00  0.000E+00  0.000E+00  1.34021E+02  1.371E+00  3.453E+00  6.811E-04  1.458E-03 -1.832E-04
   1    4   26     1    26    3.3520E+00  1.2741E-03   3.3508E+00  0.000E+00  0.000E+00  0.000E+00  1.33721E+02  1.371E+00  3.453E+00  6.810E-04  1.449E-03 -1.745E-04
   1    4   27     1    27    3.3508E+00  1.2737E-03   3.3495E+00  0.000E+00  0.000E+00  0.000E+00  1.33421E+02  1.371E+00  3.452E+00  6.809E-04  1.439E-03 -1.658E-04
   1    4   28     1    28    3.3495E+00  1.2734E-03   3.3482E+00  0.000E+00  0.000E+00  0.000E+00  1.33120E+02  1.370E+00  3.452E+00  6.808E-04  1.430E-03 -1.569E-04
   1    4   29     1    29    3.3482E+00  1.2730E-03   3.3469E+00  0.000E+00  0.000E+00  0.000E+00  1.32820E+02  1.370E+00  3.452E+00  6.807E-04  1.453E-03 -1.799E-04
   1    4   30     1    30    3.3469E+00  1.2727E-03   3.3457E+00  0.000E+00  0.000E+00  0.000E+00  1.32520E+02  1.370E+00  3.451E+00  6.806E-04  1.450E-03 -1.774E-04
   1    4   31     1    31    3.3457E+00  1.2723E-03   3.3444E+00  0.000E+00  0.000E+00  0.000E+00  1.32220E+02  1.370E+00  3.451E+00  6.806E-04  1.441E-03 -1.687E-04
   1    4   32     1    32    3.3444E+00  1.2720E-03   3.3431E+00  0.000E+00  0.000E+00  0.000E+00  1.31919E+02  1.369E+00  3.451E+00  6.805E-04  1.453E-03 -1.812E-04
   1    4   33     1    33    3.3431E+00  1.2716E-03   3.3419E+00  0.000E+00  0.000E+00  0.000E+00  1.31619E+02  1.369E+00  3.450E+00  6.804E-04  1.481E-03 -2.089E-04
   1    4   34     1    34    3.3419E+00  1.2713E-03   3.3406E+00  0.000E+00  0.000E+00  0.000E+00  1.31319E+02  1.369E+00  3.450E+00  6.803E-04  1.512E-03 -2.407E-04
   1    4   35     1    35    3.3406E+00  1.2709E-03   3.3393E+00  0.000E+00  0.000E+00  0.000E+00  1.31018E+02  1.368E+00  3.450E+00  6.802E-04  1.557E-03 -2.862E-04
   1    4   36     1    36    3.3393E+00  1.2706E-03   3.3380E+00  0.000E+00  0.000E+00  0.000E+00  1.30718E+02  1.368E+00  3.449E+00  6.801E-04  1.578E-03 -3.073E-04
   1    4   37     1    37    3.3380E+00  1.2702E-03   3.3368E+00  0.000E+00  0.000E+00  0.000E+00  1.30418E+02  1.368E+00  3.449E+00  6.800E-04  1.575E-03 -3.052E-04
   1    4   38     1    38    3.3368E+00  1.2699E-03   3.3355E+00  0.000E+00  0.000E+00  0.000E+00  1.30118E+02  1.368E+00  3.449E+00  6.799E-04  1.588E-03 -3.185E-04
   1    4   39     1    39    3.3355E+00  1.2695E-03   3.3342E+00  0.000E+00  0.000E+00  0.000E+00  1.29817E+02  1.367E+00  3.449E+00  6.798E-04  1.622E-03 -3.524E-04
   1    4   40     1    40    3.3342E+00  1.2692E-03   3.3330E+00  0.000E+00  0.000E+00  0.000E+00  1.29517E+02  1.367E+00  3.448E+00  6.798E-04  1.628E-03 -3.590E-04
   1    4   41     1    41    3.3330E+00  1.2689E-03   3.3317E+00  0.000E+00  0.000E+00  0.000E+00  1.29217E+02  1.367E+00  3.448E+00  6.797E-04  1.727E-03 -4.584E-04
   1    4   42     1    42    3.3317E+00  1.2685E-03   3.3304E+00  0.000E+00  0.000E+00  0.000E+00  1.28917E+02  1.367E+00  3.448E+00  6.796E-04  1.825E-03 -5.568E-04
   1    4   43     1    43    3.3304E+00  1.2682E-03   3.3292E+00  0.000E+00  0.000E+00  0.000E+00  1.28616E+02  1.366E+00  3.447E+00  6.795E-04  1.886E-03 -6.176E-04
   1    4   44     1    44    3.3292E+00  1.2678E-03   3.3279E+00  0.000E+00  0.000E+00  0.000E+00  1.28316E+02  1.366E+00  3.447E+00  6.794E-04  1.965E-03 -6.967E-04
   1    4   45     1    45    3.3279E+00  1.2675E-03   3.3266E+00  0.000E+00  0.000E+00  0.000E+00  1.28016E+02  1.366E+00  3.447E+00  6.793E-04  2.051E-03 -7.840E-04
   1    4   46     1    46    3.3266E+00  1.2671E-03   3.3254E+00  0.000E+00  0.000E+00  0.000E+00  1.27716E+02  1.366E+00  3.446E+00  6.792E-04  2.171E-03 -9.038E-04
   1    4   47     1    47    3.3254E+00  1.2668E-03   3.3241E+00  0.000E+00  0.000E+00  0.000E+00  1.27415E+02  1.365E+00  3.446E+00  6.791E-04  2.428E-03 -1.161E-03
   1    4   48     1    48    3.3241E+00  1.2664E-03   3.3228E+00  0.000E+00  0.000E+00  0.000E+00  1.27115E+02  1.365E+00  3.446E+00  6.791E-04  2.638E-03 -1.370E-03
   1    4   49     1    49    3.3228E+00  1.2661E-03   3.3216E+00  0.000E+00  0.000E+00  0.000E+00  1.26815E+02  1.365E+00  3.445E+00  6.790E-04  2.976E-03 -1.707E-03
   1    4   50     1    50    3.3216E+00  1.2657E-03   3.3203E+00  0.000E+00  0.000E+00  0.000E+00  1.26514E+02  1.364E+00  3.445E+00  6.789E-04  3.372E-03 -2.104E-03
   1    4   51     1    51    3.3203E+00  1.2654E-03   3.3190E+00  0.000E+00  0.000E+00  0.000E+00  1.26214E+02  1.364E+00  3.445E+00  6.788E-04  3.444E-03 -2.176E-03
   1    4   52     1    52    3.3190E+00  1.2650E-03   3.3178E+00  0.000E+00  0.000E+00  0.000E+00  1.25914E+02  1.364E+00  3.444E+00  6.787E-04  3.497E-03 -2.229E-03
   1    4   53     1    53    3.3178E+00  1.2647E-03   3.3165E+00  0.000E+00  0.000E+00  0.000E+00  1.25614E+02  1.364E+00  3.444E+00  6.786E-04  3.493E-03 -2.226E-03
   1    4   54     1    54    3.3165E+00  1.2643E-03   3.3152E+00  0.000E+00  0.000E+00  0.000E+00  1.25313E+02  1.363E+00  3.444E+00  6.785E-04  3.430E-03 -2.164E-03
   1    4   55     1    55    3.3152E+00  1.2640E-03   3.3140E+00  0.000E+00  0.000E+00  0.000E+00  1.25013E+02  1.363E+00  3.443E+00  6.784E-04  3.345E-03 -2.079E-03
   1    4   56     1    56    3.3140E+00  1.2636E-03   3.3127E+00  0.000E+00  0.000E+00  0.000E+00  1.24713E+02  1.363E+00  3.443E+00  6.783E-04  2.917E-03 -1.650E-03
   1    4   57     1    57    3.3127E+00  1.2633E-03   3.3114E+00  0.000E+00  0.000E+00  0.000E+00  1.24413E+02  1.363E+00  3.443E+00  6.783E-04  2.577E-03 -1.312E-03
   1    4   58     1    58    3.3114E+00  1.2629E-03   3.3102E+00  0.000E+00  0.000E+00  0.000E+00  1.24112E+02  1.362E+00  3.442E+00  6.782E-04  2.326E-03 -1.063E-03
   1    4   59     1    59    3.3102E+00  1.2626E-03   3.3089E+00  0.000E+00  0.000E+00  0.000E+00  1.23812E+02  1.362E+00  3.442E+00  6.781E-04  2.099E-03 -8.362E-04
   1    4   60     1    60    3.3089E+00  1.2622E-03   3.3076E+00  0.000E+00  0.000E+00  0.000E+00  1.23512E+02  1.362E+00  3.442E+00  6.780E-04  1.966E-03 -7.034E-04
   1    4   61     1    61    3.3076E+00  1.2619E-03   3.3064E+00  0.000E+00  0.000E+00  0.000E+00  1.23211E+02  1.361E+00  3.441E+00  6.779E-04  1.861E-03 -5.989E-04
   1    4   62     1    62    3.3064E+00  1.2616E-03   3.3051E+00  0.000E+00  0.000E+00  0.000E+00  1.22911E+02  1.361E+00  3.441E+00  6.778E-04  1.823E-03 -5.617E-04
   1    4   63     1    63    3.3051E+00  1.2612E-03   3.3039E+00  0.000E+00  0.000E+00  0.000E+00  1.22611E+02  1.361E+00  3.441E+00  6.777E-04  1.677E-03 -4.160E-04
   1    4   64     1    64    3.3039E+00  1.2609E-03   3.3026E+00  0.000E+00  0.000E+00  0.000E+00  1.22311E+02  1.361E+00  3.440E+00  6.776E-04  1.543E-03 -2.826E-04
   1    4   65     1    65    3.3026E+00  1.2605E-03   3.3013E+00  0.000E+00  0.000E+00  0.000E+00  1.22010E+02  1.360E+00  3.440E+00  6.776E-04  1.528E-03 -2.676E-04
   1    4   66     1    66    3.3013E+00  1.2602E-03   3.3001E+00  0.000E+00  0.000E+00  0.000E+00  1.21710E+02  1.360E+00  3.440E+00  6.775E-04  1.517E-03 -2.568E-04
   1    4   67     1    67    3.3001E+00  1.2598E-03   3.2988E+00  0.000E+00  0.000E+00  0.000E+00  1.21410E+02  1.360E+00  3.439E+00  6.774E-04  1.504E-03 -2.442E-04
   1    4   68     1    68    3.2988E+00  1.2595E-03   3.2976E+00  0.000E+00  0.000E+00  0.000E+00  1.21110E+02  1.360E+00  3.439E+00  6.773E-04  1.469E-03 -2.095E-04
   1    4   69     1    69    3.2976E+00  1.2591E-03   3.2963E+00  0.000E+00  0.000E+00  0.000E+00  1.20809E+02  1.359E+00  3.439E+00  6.772E-04  1.383E-03 -1.240E-04
   1    4   70     1    70    3.2963E+00  1.2588E-03   3.2950E+00  0.000E+00  0.000E+00  0.000E+00  1.20509E+02  1.359E+00  3.438E+00  6.771E-04  1.334E-03 -7.544E-05
   1    4   71     1    71    3.2950E+00  1.2584E-03   3.2938E+00  0.000E+00  0.000E+00  0.000E+00  1.20209E+02  1.359E+00  3.438E+00  6.770E-04  1.309E-03 -5.099E-05
   1    4   72     1    72    3.2938E+00  1.2581E-03   3.2925E+00  0.000E+00  0.000E+00  0.000E+00  1.19909E+02  1.359E+00  3.438E+00  6.769E-04  1.313E-03 -5.492E-05
   1    4   73     1    73    3.2925E+00  1.2577E-03   3.2913E+00  0.000E+00  0.000E+00  0.000E+00  1.19608E+02  1.358E+00  3.438E+00  6.769E-04  1.318E-03 -5.986E-05
   1    4   74     1    74    3.2913E+00  1.2574E-03   3.2900E+00  0.000E+00  0.000E+00  0.000E+00  1.19308E+02  1.358E+00  3.437E+00  6.768E-04  1.323E-03 -6.544E-05
   1    4   75     1    75    3.2900E+00  1.2571E-03   3.2888E+00  0.000E+00  0.000E+00  0.000E+00  1.19008E+02  1.358E+00  3.437E+00  6.767E-04  1.329E-03 -7.159E-05
   1    4   76     1    76    3.2888E+00  1.2567E-03   3.2875E+00  0.000E+00  0.000E+00  0.000E+00  1.18707E+02  1.357E+00  3.437E+00  6.766E-04  1.335E-03 -7.817E-05
   1    4   77     1    77    3.2875E+00  1.2564E-03   3.2862E+00  0.000E+00  0.000E+00  0.000E+00  1.18407E+02  1.357E+00  3.436E+00  6.765E-04  1.318E-03 -6.211E-05
   1    4   78     1    78    3.2862E+00  1.2560E-03   3.2850E+00  0.000E+00  0.000E+00  0.000E+00  1.18107E+02  1.357E+00  3.436E+00  6.764E-04  1.299E-03 -4.260E-05
   1    4   79     1    79    3.2850E+00  1.2557E-03   3.2837E+00  0.000E+00  0.000E+00  0.000E+00  1.17807E+02  1.357E+00  3.436E+00  6.763E-04  1.282E-03 -2.620E-05
   1    4   80     1    80    3.2837E+00  1.2553E-03   3.2825E+00  0.000E+00  0.000E+00  0.000E+00  1.17506E+02  1.356E+00  3.435E+00  6.762E-04  1.288E-03 -3.283E-05
   1    4   81     1    81    3.2825E+00  1.2550E-03   3.2812E+00  0.000E+00  0.000E+00  0.000E+00  1.17206E+02  1.356E+00  3.435E+00  6.761E-04  1.295E-03 -4.051E-05
   1    4   82     1    82    3.2812E+00  1.2546E-03   3.2800E+00  0.000E+00  0.000E+00  0.000E+00  1.16906E+02  1.356E+00  3.435E+00  6.761E-04  1.303E-03 -4.829E-05
   1    4   83     1    83    3.2800E+00  1.2543E-03   3.2787E+00  0.000E+00  0.000E+00  0.000E+00  1.16606E+02  1.356E+00  3.434E+00  6.760E-04  1.310E-03 -5.615E-05
   1    4   84     1    84    3.2787E+00  1.2539E-03   3.2775E+00  0.000E+00  0.000E+00  0.000E+00  1.16305E+02  1.355E+00  3.434E+00  6.759E-04  1.318E-03 -6.412E-05
   1    4   85     1    85    3.2775E+00  1.2536E-03   3.2762E+00  0.000E+00  0.000E+00  0.000E+00  1.16005E+02  1.355E+00  3.434E+00  6.758E-04  1.326E-03 -7.223E-05
   1    4   86     1    86    3.2762E+00  1.2533E-03   3.2750E+00  0.000E+00  0.000E+00  0.000E+00  1.15705E+02  1.355E+00  3.433E+00  6.757E-04  1.334E-03 -8.050E-05
   1    4   87     1    87    3.2750E+00  1.2529E-03   3.2737E+00  0.000E+00  0.000E+00  0.000E+00  1.15404E+02  1.354E+00  3.433E+00  6.756E-04  1.342E-03 -8.896E-05
   1    4   88     1    88    3.2737E+00  1.2526E-03   3.2724E+00  0.000E+00  0.000E+00  0.000E+00  1.15104E+02  1.354E+00  3.433E+00  6.755E-04  1.350E-03 -9.768E-05
   1    4   89     1    89    3.2724E+00  1.2522E-03   3.2712E+00  0.000E+00  0.000E+00  0.000E+00  1.14804E+02  1.354E+00  3.432E+00  6.754E-04  1.359E-03 -1.067E-04
   1    4   90     1    90    3.2712E+00  1.2519E-03   3.2699E+00  0.000E+00  0.000E+00  0.000E+00  1.14504E+02  1.354E+00  3.432E+00  6.754E-04  1.368E-03 -1.160E-04
   1    4   91     1    91    3.2699E+00  1.2515E-03   3.2687E+00  0.000E+00  0.000E+00  0.000E+00  1.14203E+02  1.353E+00  3.432E+00  6.753E-04  1.377E-03 -1.258E-04
   1    4   92     1    92    3.2687E+00  1.2512E-03   3.2674E+00  0.000E+00  0.000E+00  0.000E+00  1.13903E+02  1.353E+00  3.431E+00  6.752E-04  1.387E-03 -1.360E-04
   1    4   93     1    93    3.2674E+00  1.2508E-03   3.2662E+00  0.000E+00  0.000E+00  0.000E+00  1.13603E+02  1.353E+00  3.431E+00  6.751E-04  1.431E-03 -1.797E-04
   1    4   94     1    94    3.2662E+00  1.2505E-03   3.2649E+00  0.000E+00  0.000E+00  0.000E+00  1.13303E+02  1.353E+00  3.431E+00  6.750E-04  1.475E-03 -2.241E-04
   1    4   95     1    95    3.2649E+00  1.2502E-03   3.2637E+00  0.000E+00  0.000E+00  0.000E+00  1.13002E+02  1.352E+00  3.430E+00  6.749E-04  1.502E-03 -2.517E-04
   1    4   96     1    96    3.2637E+00  1.2498E-03   3.2624E+00  0.000E+00  0.000E+00  0.000E+00  1.12702E+02  1.352E+00  3.430E+00  6.748E-04  1.516E-03 -2.658E-04
   1    4   97     1    97    3.2624E+00  1.2495E-03   3.2612E+00  0.000E+00  0.000E+00  0.000E+00  1.12402E+02  1.352E+00  3.430E+00  6.747E-04  1.530E-03 -2.809E-04
   1    4   98     1    98    3.2612E+00  1.2491E-03   3.2599E+00  0.000E+00  0.000E+00  0.000E+00  1.12102E+02  1.352E+00  3.429E+00  6.747E-04  1.546E-03 -2.969E-04
   1    4   99     1    99    3.2599E+00  1.2488E-03   3.2587E+00  0.000E+00  0.000E+00  0.000E+00  1.11801E+02  1.351E+00  3.429E+00  6.746E-04  1.563E-03 -3.139E-04
   1    4  100     1   100    3.2587E+00  1.2484E-03   3.2574E+00  0.000E+00  0.000E+00  0.000E+00  1.11501E+02  1.351E+00  3.429E+00  6.745E-04  1.580E-03 -3.317E-04



1
  VOLUMETRIC BUDGET FOR UNSATURATED ZONE BENEATH STREAMS AT END OF TIME STEP    30 STRESS PERIOD  11
  ------------------------------------------------------------------------------------------------

    CUMULATIVE VOLUMES             L**3    RATES FOR THIS TIME STEP         L**3/T
    ------------------                     ------------------------


          STREAM LOSS =     12791121.0000            STREAM LOSS =            0.1266
    CHANGE IN STORAGE =      1200599.6250      CHANGE IN STORAGE =       -4.2428E-02
       RECHARGE TO GW =     11594514.0000         RECHARGE TO GW =            0.1690

             TOTAL IN =     12791121.0000               TOTAL IN =            0.1690

            TOTAL OUT =     12795114.0000              TOTAL OUT =            0.1690

             IN - OUT =        -3993.0000               IN - OUT =       -2.4289E-05

  PERCENT DISCREPANCY =           -0.01      PERCENT DISCREPANCY =            -0.00



1
  VOLUMETRIC BUDGET FOR ENTIRE MODEL AT END OF TIME STEP   30, STRESS PERIOD  11
  ------------------------------------------------------------------------------

     CUMULATIVE VOLUMES      L**3       RATES FOR THIS TIME STEP      L**3/T
     ------------------                 ------------------------

           IN:                                      IN:
           ---                                      ---
             STORAGE     =    61453556.0000               STORAGE     =           1.2134
       CONSTANT HEAD     =           0.0000         CONSTANT HEAD     =           0.0000
               WELLS     =           0.0000                 WELLS     =           0.0000
     HEAD DEP BOUNDS     =           0.0000       HEAD DEP BOUNDS     =           0.0000
      STREAM LEAKAGE     =    11594528.0000        STREAM LEAKAGE     =           0.1690

                TOTAL IN =    73048080.0000                  TOTAL IN =           1.3824

          OUT:                                     OUT:
          ----                                     ----
             STORAGE     =     2360133.2500               STORAGE     =           0.1762
       CONSTANT HEAD     =           0.0000         CONSTANT HEAD     =           0.0000
               WELLS     =    58031272.0000                 WELLS     =           1.0000
     HEAD DEP BOUNDS     =    12656679.0000       HEAD DEP BOUNDS     =           0.2063
      STREAM LEAKAGE     =           0.0000        STREAM LEAKAGE     =           0.0000

               TOTAL OUT =    73048080.0000                 TOTAL OUT =           1.3824

                IN - OUT =           0.0000                  IN - OUT =           0.0000

     PERCENT DISCREPANCY =           0.00         PERCENT DISCREPANCY =           0.00






         TIME SUMMARY AT END OF TIME STEP   30 IN STRESS PERIOD   11
                    SECONDS     MINUTES      HOURS       DAYS        YEARS
                    -----------------------------------------------------------
   TIME STEP LENGTH 2.49961E+05  4166.0      69.434      2.8931     7.92080E-03
 STRESS PERIOD TIME 2.59200E+06  43200.      720.00      30.000     8.21355E-02
         TOTAL TIME 2.85120E+07 4.75200E+05  7920.0      330.00     0.90349    
1
1
                            STRESS PERIOD NO.   12, LENGTH =   2592000.    
                            -----------------------------------------------

                              NUMBER OF TIME STEPS =    30

                               MULTIPLIER FOR DELT =     1.100

                            INITIAL TIME STEP SIZE =   15757.40    

 REUSING NON-PARAMETER WELLS FROM LAST STRESS PERIOD

      1 WELL 

 REUSING NON-PARAMETER GHB CELLS FROM LAST STRESS PERIOD

      7 GHB CELLS



 CLASSIFICATION & COUNT OF STREAM SEGMENTS BASED ON SOURCE OF INFLOW:

                HEADWATER     DIVERSION     RECEIVES TRIBUTARY FLOW
                ---------     ---------     -----------------------
                     1              0               0



                    INPUT DATA FOR EACH STREAM SEGMENT
 ---------------------------------------------------------------------------------------------

 SEGMENT    SEG.     INFLOW   OVERLAND   STREAM    STREAM   ICALC  OUTFLOW  DIVERSION PRIORITY
    NO.    LENGTH     RATE     RUNOFF      ET       PPT.    METH.  TO SEG.  FROM SEG.    NO.

      1  2.000E+04 2.208E+00 0.000E+00 0.000E+00 0.000E+00    2        0        0        0


         STREAMBED PROPERTIES AND STREAM DIMENSIONS

 SEGMENT     BED HYD. COND.      BED THICKNESS     ELEV.-TOP OF BED     WIDTH OF STREAM     DEPTH OF STREAM    STREAM ROUGHNESS
    No.     UPPER     LOWER     UPPER     LOWER     UPPER     LOWER     UPPER     LOWER     UPPER     LOWER   CHANNEL      BANK

     1  3.500E-07 3.500E-07                                                                                 3.000E-02 4.000E-02

  EIGHT POINT CROSS-SECTION DATA FOR SEGMENTS WITH ICALC = 2
    X VALUES X VALUES START FROM LEFT SIDE LOOKING DOWNSTREAM

     SEGMENT NO.        X1        X2        X3        X4        X5        X6        X7        X8
            1      0.000E+00 2.000E+00 4.000E+00 6.000E+00 8.000E+00 1.000E+01 1.200E+01 1.400E+01

    Z VALUES ARE RELATIVE TO STREAMBED ELEVATION

     SEGMENT NO.          Z1        Z2        Z3        Z4        Z5        Z6        Z7        Z8
            1      6.000E+00 4.500E+00 3.500E+00 0.000E+00 3.000E-01 3.500E+00 4.500E+00 6.000E+00



 
 SOLVING FOR HEAD 
                                                   Max.-Head-Change                         Max.-Flux-Residual
  Residual-Control   Outer-Iter.   Inner-Iter.     Column Row Layer    Maximum-Head-Change  Column Row Layer    Maximum-Flux-Residual          L2-NORM 
          0                 1           2            55    5     1      -0.7711863165E+00      55    5    1        -0.2266548103E+00      0.3257729847E+00
          0                 2           2            55    5     1       0.7397911512E-01      55    5    1         0.2237403276E-01      0.3232675878E-01
          0                 3           2            55    5     1      -0.6564815103E-02      55    5    1        -0.2015259884E-02      0.2922880479E-02
          0                 4           2            55    5     1       0.5197761639E-03      55    5    1         0.1614124826E-03      0.2346091349E-03
          0                 5           1            55    5     1      -0.3617593039E-04      55    5    1        -0.1134719510E-04      0.1650725392E-04
          0                 6           1            55    5     1       0.2171719589E-05      55    5    1         0.6875949347E-06      0.1000521235E-05
          0                 7           1            55    5     1      -0.1097300971E-06      55    5    1        -0.3506053237E-07      0.5101815056E-07

    ------------------------------------------------
       NWT REQUIRED            7 OUTER ITERATIONS 
       AND A TOTAL OF         11 INNER ITERATIONS.
    ------------------------------------------------

 NO OUTPUT CONTROL FOR STRESS PERIOD   12   TIME STEP    1
 
 SOLVING FOR HEAD 
                                                   Max.-Head-Change                         Max.-Flux-Residual
  Residual-Control   Outer-Iter.   Inner-Iter.     Column Row Layer    Maximum-Head-Change  Column Row Layer    Maximum-Flux-Residual          L2-NORM 
          0                 1           2            55    5     1      -0.6175317546E+00      55    5    1        -0.1607148467E+00      0.2352092301E+00
          0                 2           2            55    5     1       0.5839984814E-01      55    5    1         0.1576142123E-01      0.2296355867E-01
          0                 3           2            55    5     1      -0.5199981325E-02      55    5    1        -0.1420747110E-02      0.2074124243E-02
          0                 4           2            55    5     1       0.4105416601E-03      55    5    1         0.1137848387E-03      0.1665343726E-03
          0                 5           1            55    5     1      -0.2846035104E-04      55    5    1        -0.7999063139E-05      0.1173235970E-04
          0                 6           1            55    5     1       0.1701303275E-05      55    5    1         0.4847111736E-06      0.7123114718E-06
          0                 7           1            55    5     1      -0.8561430506E-07      55    5    1        -0.2471547100E-07      0.3638976455E-07

    ------------------------------------------------
       NWT REQUIRED            7 OUTER ITERATIONS 
       AND A TOTAL OF         11 INNER ITERATIONS.
    ------------------------------------------------

 NO OUTPUT CONTROL FOR STRESS PERIOD   12   TIME STEP    2
 
 SOLVING FOR HEAD 
                                                   Max.-Head-Change                         Max.-Flux-Residual
  Residual-Control   Outer-Iter.   Inner-Iter.     Column Row Layer    Maximum-Head-Change  Column Row Layer    Maximum-Flux-Residual          L2-NORM 
          0                 1           2            55    5     1      -0.5081794935E+00      55    5    1        -0.1170765627E+00      0.1807553172E+00
          0                 2           2            55    5     1       0.4744757069E-01      55    5    1         0.1145563643E-01      0.1743516511E-01
          0                 3           2            55    5     1      -0.4220627649E-02      55    5    1        -0.1032918095E-02      0.1576611981E-02
          0                 4           2            55    5     1       0.3323256741E-03      55    5    1         0.8272201197E-04      0.1266949191E-03
          0                 5           1            55    5     1      -0.2297943990E-04      55    5    1        -0.5815363586E-05      0.8931297792E-05
          0                 6           1            55    5     1       0.1370328534E-05      55    5    1         0.3523876662E-06      0.5425270394E-06
          0                 7           1            55    5     1      -0.6880059691E-07      55    5    1        -0.1796828020E-07      0.2773113384E-07

    ------------------------------------------------
       NWT REQUIRED            7 OUTER ITERATIONS 
       AND A TOTAL OF         11 INNER ITERATIONS.
    ------------------------------------------------

 NO OUTPUT CONTROL FOR STRESS PERIOD   12   TIME STEP    3
 
 SOLVING FOR HEAD 
                                                   Max.-Head-Change                         Max.-Flux-Residual
  Residual-Control   Outer-Iter.   Inner-Iter.     Column Row Layer    Maximum-Head-Change  Column Row Layer    Maximum-Flux-Residual          L2-NORM 
          0                 1           2            55    5     1      -0.4295595385E+00      55    5    1        -0.8778011919E-01      0.1467420496E+00
          0                 2           2            55    5     1       0.3955771082E-01      55    5    1         0.8585890690E-02      0.1405362609E-01
          0                 3           2            55    5     1      -0.3413946403E-02      55    5    1        -0.7741972331E-03      0.1278145722E-02
          0                 4           2            55    5     1       0.2662799592E-03      55    5    1         0.6200444867E-04      0.1036193589E-03
          0                 5           1            55    5     1      -0.1840427905E-04      55    5    1        -0.4358896361E-05      0.7337322232E-05
          0                 6           1            55    5     1       0.1101895269E-05      55    5    1         0.2641317105E-06      0.4459982705E-06
          0                 7           1            55    5     1      -0.5563459879E-07      55    5    1        -0.1346810119E-07      0.2276308321E-07

    ------------------------------------------------
       NWT REQUIRED            7 OUTER ITERATIONS 
       AND A TOTAL OF         11 INNER ITERATIONS.
    ------------------------------------------------

 NO OUTPUT CONTROL FOR STRESS PERIOD   12   TIME STEP    4
 
 SOLVING FOR HEAD 
                                                   Max.-Head-Change                         Max.-Flux-Residual
  Residual-Control   Outer-Iter.   Inner-Iter.     Column Row Layer    Maximum-Head-Change  Column Row Layer    Maximum-Flux-Residual          L2-NORM 
          0                 1           2            55    5     1      -0.3711295012E+00      55    5    1        -0.6744284923E-01      0.1242883165E+00
          0                 2           2            55    5     1       0.3388512549E-01      55    5    1         0.6599191394E-02      0.1188368659E-01
          0                 3           2            55    5     1      -0.2906273954E-02      55    5    1        -0.5950536603E-03      0.1083447611E-02
          0                 4           2            55    5     1       0.2257740416E-03      55    5    1         0.4765708970E-04      0.8813847258E-04
          0                 5           1            55    5     1      -0.1556772534E-04      55    5    1        -0.3350280072E-05      0.6257301319E-05
          0                 6           1            55    5     1       0.9309576024E-06      55    5    1         0.2030135985E-06      0.3809080753E-06

    ------------------------------------------------
       NWT REQUIRED            6 OUTER ITERATIONS 
       AND A TOTAL OF         10 INNER ITERATIONS.
    ------------------------------------------------

 NO OUTPUT CONTROL FOR STRESS PERIOD   12   TIME STEP    5
 
 SOLVING FOR HEAD 
                                                   Max.-Head-Change                         Max.-Flux-Residual
  Residual-Control   Outer-Iter.   Inner-Iter.     Column Row Layer    Maximum-Head-Change  Column Row Layer    Maximum-Flux-Residual          L2-NORM 
          0                 1           2            55    5     1      -0.3275535813E+00      55    5    1        -0.5307485118E-01      0.1089716783E+00
          0                 2           2            55    5     1       0.2970181617E-01      55    5    1         0.5195993645E-02      0.1043871824E-01
          0                 3           2            55    5     1      -0.2533376003E-02      55    5    1        -0.4685112895E-03      0.9550114569E-03
          0                 4           2            55    5     1       0.1960559137E-03      55    5    1         0.3752259587E-04      0.7797577628E-04
          0                 5           1            55    5     1      -0.1348545786E-04      55    5    1        -0.2637826804E-05      0.5551563513E-05
          0                 6           1            55    5     1       0.8053434199E-06      55    5    1         0.1598417829E-06      0.3385423726E-06

    ------------------------------------------------
       NWT REQUIRED            6 OUTER ITERATIONS 
       AND A TOTAL OF         10 INNER ITERATIONS.
    ------------------------------------------------

 NO OUTPUT CONTROL FOR STRESS PERIOD   12   TIME STEP    6
 
 SOLVING FOR HEAD 
                                                   Max.-Head-Change                         Max.-Flux-Residual
  Residual-Control   Outer-Iter.   Inner-Iter.     Column Row Layer    Maximum-Head-Change  Column Row Layer    Maximum-Flux-Residual          L2-NORM 
          0                 1           2            55    5     1      -0.2942668881E+00      55    5    1        -0.4259163437E-01      0.9807314403E-01
          0                 2           2            55    5     1       0.2652729801E-01      55    5    1         0.4171407476E-02      0.9426450412E-02
          0                 3           2            55    5     1      -0.2250969066E-02      55    5    1        -0.3761127651E-03      0.8657435086E-03
          0                 4           2            55    5     1       0.1735541433E-03      55    5    1         0.3012261550E-04      0.7096487586E-04
          0                 5           1            55    5     1      -0.1190766045E-04      55    5    1        -0.2117609391E-05      0.5068365031E-05
          0                 6           1            55    5     1       0.7100412356E-06      55    5    1         0.1283186898E-06      0.3097351408E-06

    ------------------------------------------------
       NWT REQUIRED            6 OUTER ITERATIONS 
       AND A TOTAL OF         10 INNER ITERATIONS.
    ------------------------------------------------

 NO OUTPUT CONTROL FOR STRESS PERIOD   12   TIME STEP    7
 
 SOLVING FOR HEAD 
                                                   Max.-Head-Change                         Max.-Flux-Residual
  Residual-Control   Outer-Iter.   Inner-Iter.     Column Row Layer    Maximum-Head-Change  Column Row Layer    Maximum-Flux-Residual          L2-NORM 
          0                 1           2            55    5     1      -0.2688285075E+00      55    5    1        -0.3475990488E-01      0.9013700060E-01
          0                 2           2            55    5     1       0.2417874850E-01      55    5    1         0.3405044977E-02      0.8691356798E-02
          0                 3           2            55    5     1      -0.2042806312E-02      55    5    1        -0.3070142549E-03      0.8009953259E-03
          0                 4           2            55    5     1       0.1567936036E-03      55    5    1         0.2458853831E-04      0.6592398896E-04
          0                 5           1            55    5     1      -0.1071570025E-04      55    5    1        -0.1728565532E-05      0.4725315275E-05
          0                 6           1            55    5     1       0.6371456542E-06      55    5    1         0.1047441849E-06      0.2895433416E-06

    ------------------------------------------------
       NWT REQUIRED            6 OUTER ITERATIONS 
       AND A TOTAL OF         10 INNER ITERATIONS.
    ------------------------------------------------

 NO OUTPUT CONTROL FOR STRESS PERIOD   12   TIME STEP    8
 
 SOLVING FOR HEAD 
                                                   Max.-Head-Change                         Max.-Flux-Residual
  Residual-Control   Outer-Iter.   Inner-Iter.     Column Row Layer    Maximum-Head-Change  Column Row Layer    Maximum-Flux-Residual          L2-NORM 
          0                 1           2            55    5     1      -0.2498024592E+00      55    5    1        -0.2893515441E-01      0.8420021933E-01
          0                 2           2            55    5     1       0.2236155736E-01      55    5    1         0.2834065587E-02      0.8147819731E-02
          0                 3           2            55    5     1      -0.1880764905E-02      55    5    1        -0.2555317708E-03      0.7542307506E-03
          0                 4           2            55    5     1       0.1438335311E-03      55    5    1         0.2046537670E-04      0.6235618563E-04
          0                 5           1            55    5     1      -0.9802553045E-05      55    5    1        -0.1438708284E-05      0.4486189272E-05
          0                 6           1            55    5     1       0.5816845316E-06      55    5    1         0.8717999467E-07      0.2756387420E-06

    ------------------------------------------------
       NWT REQUIRED            6 OUTER ITERATIONS 
       AND A TOTAL OF         10 INNER ITERATIONS.
    ------------------------------------------------

 NO OUTPUT CONTROL FOR STRESS PERIOD   12   TIME STEP    9
 
 SOLVING FOR HEAD 
                                                   Max.-Head-Change                         Max.-Flux-Residual
  Residual-Control   Outer-Iter.   Inner-Iter.     Column Row Layer    Maximum-Head-Change  Column Row Layer    Maximum-Flux-Residual          L2-NORM 
          0                 1           2            55    5     1      -0.2349653049E+00      55    5    1        -0.2443091231E-01      0.7958952568E-01
          0                 2           2            55    5     1       0.2094473368E-01      55    5    1         0.2391852071E-02      0.7725435357E-02
          0                 3           2            55    5     1      -0.1754268709E-02      55    5    1        -0.2156634842E-03      0.7182837449E-03
          0                 4           2            55    5     1       0.1336957163E-03      55    5    1         0.1727235586E-04      0.5966942412E-04
          0                 5           1            55    5     1      -0.9086571438E-05      55    5    1        -0.1214239858E-05      0.4310426121E-05
          0                 6           1            55    5     1       0.5380742619E-06      55    5    1         0.7357810450E-07      0.2656484370E-06

    ------------------------------------------------
       NWT REQUIRED            6 OUTER ITERATIONS 
       AND A TOTAL OF         10 INNER ITERATIONS.
    ------------------------------------------------

 NO OUTPUT CONTROL FOR STRESS PERIOD   12   TIME STEP   10
 
 SOLVING FOR HEAD 
                                                   Max.-Head-Change                         Max.-Flux-Residual
  Residual-Control   Outer-Iter.   Inner-Iter.     Column Row Layer    Maximum-Head-Change  Column Row Layer    Maximum-Flux-Residual          L2-NORM 
          0                 1           2            55    5     1      -0.2236323814E+00      55    5    1        -0.2086618382E-01      0.7595152724E-01
          0                 2           2            55    5     1       0.1984514630E-01      55    5    1         0.2041310652E-02      0.7389855674E-02
          0                 3           2            55    5     1      -0.1654873451E-02      55    5    1        -0.1840648254E-03      0.6900160313E-03
          0                 4           2            55    5     1       0.1256548708E-03      55    5    1         0.1474161148E-04      0.5760814703E-04
          0                 5           1            55    5     1      -0.8514785457E-05      55    5    1        -0.1036329448E-05      0.4179932499E-05
          0                 6           1            55    5     1       0.5030584446E-06      55    5    1         0.6279744202E-07      0.2584775527E-06

    ------------------------------------------------
       NWT REQUIRED            6 OUTER ITERATIONS 
       AND A TOTAL OF         10 INNER ITERATIONS.
    ------------------------------------------------

 NO OUTPUT CONTROL FOR STRESS PERIOD   12   TIME STEP   11
 
 SOLVING FOR HEAD 
                                                   Max.-Head-Change                         Max.-Flux-Residual
  Residual-Control   Outer-Iter.   Inner-Iter.     Column Row Layer    Maximum-Head-Change  Column Row Layer    Maximum-Flux-Residual          L2-NORM 
          0                 1           2            55    5     1      -0.2158214976E+00      55    5    1        -0.1810188149E-01      0.7308831154E-01
          0                 2           2            55    5     1       0.1906369282E-01      55    5    1         0.1768727892E-02      0.7123068082E-02
          0                 3           2            55    5     1      -0.1582563281E-02      55    5    1        -0.1594996569E-03      0.6677472686E-03
          0                 4           2            55    5     1       0.1196995996E-03      55    5    1         0.1277413997E-04      0.5603255596E-04
          0                 5           1            55    6     1      -0.8116939237E-05      55    5    1        -0.8980171438E-06      0.4084722212E-05
          0                 6           1            55    6     1       0.4852422334E-06      55    5    1         0.5441626671E-07      0.2535255603E-06

    ------------------------------------------------
       NWT REQUIRED            6 OUTER ITERATIONS 
       AND A TOTAL OF         10 INNER ITERATIONS.
    ------------------------------------------------

 NO OUTPUT CONTROL FOR STRESS PERIOD   12   TIME STEP   12
 
 SOLVING FOR HEAD 
                                                   Max.-Head-Change                         Max.-Flux-Residual
  Residual-Control   Outer-Iter.   Inner-Iter.     Column Row Layer    Maximum-Head-Change  Column Row Layer    Maximum-Flux-Residual          L2-NORM 
          0                 1           2            55    5     1      -0.2105488251E+00      55    5    1        -0.1587631675E-01      0.7079490088E-01
          0                 2           2            55    5     1       0.1850676317E-01      55    5    1         0.1548701133E-02      0.6907523221E-02
          0                 3           2            55    5     1      -0.1528994244E-02      55    5    1        -0.1396754757E-03      0.6499296554E-03
          0                 4           2            55    5     1       0.1151658600E-03      55    5    1         0.1118635238E-04      0.5482184611E-04
          0                 5           1            55    6     1      -0.7945118352E-05      55    5    1        -0.7863966012E-06      0.4016360349E-05
          0                 6           1            55    6     1       0.4745442118E-06      55    5    1         0.4765250616E-07      0.2502703467E-06

    ------------------------------------------------
       NWT REQUIRED            6 OUTER ITERATIONS 
       AND A TOTAL OF         10 INNER ITERATIONS.
    ------------------------------------------------

 NO OUTPUT CONTROL FOR STRESS PERIOD   12   TIME STEP   13
 
 SOLVING FOR HEAD 
                                                   Max.-Head-Change                         Max.-Flux-Residual
  Residual-Control   Outer-Iter.   Inner-Iter.     Column Row Layer    Maximum-Head-Change  Column Row Layer    Maximum-Flux-Residual          L2-NORM 
          0                 1           2            55    5     1      -0.2075904880E+00      55    5    1        -0.1406464868E-01      0.6897519760E-01
          0                 2           2            55    5     1       0.1815227072E-01      55    5    1         0.1368975755E-02      0.6731921633E-02
          0                 3           2            55    5     1      -0.1491749324E-02      55    5    1        -0.1234874084E-03      0.6355816009E-03
          0                 4           2            55    6     1       0.1130058060E-03      55    5    1         0.9889762411E-05      0.5389160530E-04
          0                 5           1            55    6     1      -0.7799533181E-05      55    5    1        -0.6952472341E-06      0.3968587452E-05
          0                 6           1            55    6     1       0.4653304846E-06      55    5    1         0.4212921545E-07      0.2483236780E-06

    ------------------------------------------------
       NWT REQUIRED            6 OUTER ITERATIONS 
       AND A TOTAL OF         10 INNER ITERATIONS.
    ------------------------------------------------

 NO OUTPUT CONTROL FOR STRESS PERIOD   12   TIME STEP   14
 
 SOLVING FOR HEAD 
                                                   Max.-Head-Change                         Max.-Flux-Residual
  Residual-Control   Outer-Iter.   Inner-Iter.     Column Row Layer    Maximum-Head-Change  Column Row Layer    Maximum-Flux-Residual          L2-NORM 
          0                 1           2            55    5     1      -0.2075069524E+00      55    5    1        -0.1263091842E-01      0.6754715501E-01
          0                 2           2            55    5     1       0.1808732557E-01      55    5    1         0.1225866253E-02      0.6596665486E-02
          0                 3           2            55    5     1      -0.1480055029E-02      55    5    1        -0.1106068274E-03      0.6249440169E-03
          0                 4           2            55    6     1       0.1117135144E-03      55    5    1         0.8858001972E-05      0.5324976850E-04
          0                 5           1            55    6     1      -0.7697055992E-05      55    5    1        -0.6227157312E-06      0.3940912463E-05
          0                 6           1            55    7     1       0.4593716661E-06      55    5    1         0.3773409196E-07      0.2476047610E-06

    ------------------------------------------------
       NWT REQUIRED            6 OUTER ITERATIONS 
       AND A TOTAL OF         10 INNER ITERATIONS.
    ------------------------------------------------

 NO OUTPUT CONTROL FOR STRESS PERIOD   12   TIME STEP   15
 
 SOLVING FOR HEAD 
                                                   Max.-Head-Change                         Max.-Flux-Residual
  Residual-Control   Outer-Iter.   Inner-Iter.     Column Row Layer    Maximum-Head-Change  Column Row Layer    Maximum-Flux-Residual          L2-NORM 
          0                 1           2            55    5     1      -0.2086742369E+00      55    5    1        -0.1148094696E-01      0.6637910987E-01
          0                 2           2            55    5     1       0.1764455609E-01      55    5    1         0.1110373178E-02      0.6489995808E-02
          0                 3           2            55    5     1      -0.1445950259E-02      55    5    1        -0.1001935952E-03      0.6178149398E-03
          0                 4           2            55    6     1       0.1105333101E-03      55    5    1         0.8024044356E-05      0.5291825897E-04
          0                 5           1            55    7     1      -0.7639808590E-05      55    5    1        -0.5640886328E-06      0.3934558524E-05
          0                 6           1            55    7     1       0.4571864429E-06      55    5    1         0.3418152417E-07      0.2480699050E-06

    ------------------------------------------------
       NWT REQUIRED            6 OUTER ITERATIONS 
       AND A TOTAL OF         10 INNER ITERATIONS.
    ------------------------------------------------

 NO OUTPUT CONTROL FOR STRESS PERIOD   12   TIME STEP   16
 
 SOLVING FOR HEAD 
                                                   Max.-Head-Change                         Max.-Flux-Residual
  Residual-Control   Outer-Iter.   Inner-Iter.     Column Row Layer    Maximum-Head-Change  Column Row Layer    Maximum-Flux-Residual          L2-NORM 
          0                 1           2            55    5     1      -0.2110982863E+00      55    5    1        -0.1051945096E-01      0.6544793435E-01
          0                 2           2            55    5     1       0.1753582822E-01      55    5    1         0.1013153954E-02      0.6404121184E-02
          0                 3           2            55    6     1      -0.1402949795E-02      55    5    1        -0.9143812462E-04      0.6119690901E-03
          0                 4           2            55    7     1       0.1097288235E-03      55    5    1         0.7323005526E-05      0.5268228071E-04
          0                 5           1            55    7     1      -0.7607285292E-05      55    5    1        -0.5148039263E-06      0.3935637361E-05
          0                 6           1            55    7     1       0.4553013853E-06      55    5    1         0.3119507574E-07      0.2490323344E-06

    ------------------------------------------------
       NWT REQUIRED            6 OUTER ITERATIONS 
       AND A TOTAL OF         10 INNER ITERATIONS.
    ------------------------------------------------

 NO OUTPUT CONTROL FOR STRESS PERIOD   12   TIME STEP   17
 
 SOLVING FOR HEAD 
                                                   Max.-Head-Change                         Max.-Flux-Residual
  Residual-Control   Outer-Iter.   Inner-Iter.     Column Row Layer    Maximum-Head-Change  Column Row Layer    Maximum-Flux-Residual          L2-NORM 
          0                 1           2            55    5     1      -0.2164855636E+00      55    5    1        -0.9703269160E-02      0.6474378014E-01
          0                 2           2            55    5     1       0.1787815825E-01      55    5    1         0.9295384100E-03      0.6334283063E-02
          0                 3           2            55    6     1      -0.1411680903E-02      55    5    1        -0.8392649566E-04      0.6066379799E-03
          0                 4           2            55    7     1       0.1102190342E-03      55    5    1         0.6721236319E-05      0.5245371815E-04
          0                 5           1            55    7     1      -0.7630785627E-05      55    5    1        -0.4725004917E-06      0.3937886984E-05
          0                 6           1            55    7     1       0.4561629004E-06      55    5    1         0.2863165460E-07      0.2501579315E-06

    ------------------------------------------------
       NWT REQUIRED            6 OUTER ITERATIONS 
       AND A TOTAL OF         10 INNER ITERATIONS.
    ------------------------------------------------

 NO OUTPUT CONTROL FOR STRESS PERIOD   12   TIME STEP   18
 
 SOLVING FOR HEAD 
                                                   Max.-Head-Change                         Max.-Flux-Residual
  Residual-Control   Outer-Iter.   Inner-Iter.     Column Row Layer    Maximum-Head-Change  Column Row Layer    Maximum-Flux-Residual          L2-NORM 
          0                 1           2            55    5     1      -0.2245974202E+00      55    5    1        -0.9031629656E-02      0.6422128331E-01
          0                 2           2            55    5     1       0.1846653595E-01      55    5    1         0.8593311310E-03      0.6281901847E-02
          0                 3           2            55    5     1      -0.1447719087E-02      55    5    1        -0.7763017051E-04      0.6028390519E-03
          0                 4           2            55    7     1       0.1114947538E-03      55    5    1         0.6216750925E-05      0.5234761500E-04
          0                 5           1            55    7     1      -0.7705488691E-05      55    5    1        -0.4370363412E-06      0.3948931500E-05
          0                 6           1            55    7     1       0.4598759435E-06      55    5    1         0.2648266550E-07      0.2517835160E-06

    ------------------------------------------------
       NWT REQUIRED            6 OUTER ITERATIONS 
       AND A TOTAL OF         10 INNER ITERATIONS.
    ------------------------------------------------

 NO OUTPUT CONTROL FOR STRESS PERIOD   12   TIME STEP   19
 
 SOLVING FOR HEAD 
                                                   Max.-Head-Change                         Max.-Flux-Residual
  Residual-Control   Outer-Iter.   Inner-Iter.     Column Row Layer    Maximum-Head-Change  Column Row Layer    Maximum-Flux-Residual          L2-NORM 
          0                 1           3            55    5     1      -0.2350027675E+00      55    5    1        -0.8518129683E-02      0.6381776645E-01
          0                 2           2            55    5     1       0.1921882714E-01      55    5    1         0.8036987315E-03      0.6246880099E-02
          0                 3           2            55    5     1      -0.1496451118E-02      55    5    1        -0.7265079324E-04      0.6007533908E-03
          0                 4           2            55    7     1       0.1136944450E-03      55    5    1         0.5817741685E-05      0.5235069713E-04
          0                 5           1            55    7     1      -0.7842131673E-05      55    5    1        -0.4089870533E-06      0.3965752684E-05
          0                 6           1            55    7     1       0.4671256531E-06      72    4    1        -0.2626148721E-07      0.2536359500E-06

    ------------------------------------------------
       NWT REQUIRED            6 OUTER ITERATIONS 
       AND A TOTAL OF         11 INNER ITERATIONS.
    ------------------------------------------------

 NO OUTPUT CONTROL FOR STRESS PERIOD   12   TIME STEP   20
 
 SOLVING FOR HEAD 
                                                   Max.-Head-Change                         Max.-Flux-Residual
  Residual-Control   Outer-Iter.   Inner-Iter.     Column Row Layer    Maximum-Head-Change  Column Row Layer    Maximum-Flux-Residual          L2-NORM 
          0                 1           3            55    5     1      -0.2475381352E+00      55    5    1        -0.8119815214E-02      0.6352862692E-01
          0                 2           2            55    5     1       0.1975385950E-01      55    5    1         0.7582700230E-03      0.6218852304E-02
          0                 3           2            55    5     1      -0.1536274748E-02      55    5    1        -0.6857831502E-04      0.5994624523E-03
          0                 4           2            55    7     1       0.1167862300E-03      55    5    1         0.5491469745E-05      0.5241712676E-04
          0                 5           1            55    7     1      -0.8041569422E-05      50    4    1         0.4215172154E-06      0.3985793141E-05
          0                 6           1            55    7     1       0.4780254192E-06      72    4    1        -0.2695460211E-07      0.2555205712E-06

    ------------------------------------------------
       NWT REQUIRED            6 OUTER ITERATIONS 
       AND A TOTAL OF         11 INNER ITERATIONS.
    ------------------------------------------------

 NO OUTPUT CONTROL FOR STRESS PERIOD   12   TIME STEP   21
 
 SOLVING FOR HEAD 
                                                   Max.-Head-Change                         Max.-Flux-Residual
  Residual-Control   Outer-Iter.   Inner-Iter.     Column Row Layer    Maximum-Head-Change  Column Row Layer    Maximum-Flux-Residual          L2-NORM 
          0                 1           3            55    5     1      -0.2624724142E+00      55    5    1        -0.7779214163E-02      0.6339358994E-01
          0                 2           2            55    5     1       0.2048379171E-01      55    5    1         0.7172127316E-03      0.6197862205E-02
          0                 3           2            55    6     1      -0.1553455546E-02      55    5    1        -0.6490551908E-04      0.5981264550E-03
          0                 4           2            55    7     1       0.1203080642E-03      55    4    1        -0.5787570816E-05      0.5245763347E-04
          0                 5           1            55    7     1      -0.8274382586E-05      55    4    1         0.4615723799E-06      0.4003449798E-05
          0                 6           1            55    7     1       0.4913550663E-06      55    4    1        -0.2905485841E-07      0.2571384173E-06

    ------------------------------------------------
       NWT REQUIRED            6 OUTER ITERATIONS 
       AND A TOTAL OF         11 INNER ITERATIONS.
    ------------------------------------------------

 NO OUTPUT CONTROL FOR STRESS PERIOD   12   TIME STEP   22
 
 SOLVING FOR HEAD 
                                                   Max.-Head-Change                         Max.-Flux-Residual
  Residual-Control   Outer-Iter.   Inner-Iter.     Column Row Layer    Maximum-Head-Change  Column Row Layer    Maximum-Flux-Residual          L2-NORM 
          0                 1           3            55    5     1      -0.2815479013E+00      55    5    1        -0.7522120435E-02      0.6337939263E-01
          0                 2           2            55    5     1       0.2187704027E-01      55    5    1         0.6820860170E-03      0.6191073168E-02
          0                 3           2            55    5     1      -0.1637855509E-02      55    5    1        -0.6179816007E-04      0.5976687768E-03
          0                 4           2            55    7     1       0.1257141742E-03      55    4    1        -0.5819182960E-05      0.5255335248E-04
          0                 5           1            55    7     1      -0.8620176943E-05      55    4    1         0.4684114971E-06      0.4025855871E-05
          0                 6           1            55    7     1       0.5101024013E-06      55    4    1        -0.2953313183E-07      0.2589842325E-06

    ------------------------------------------------
       NWT REQUIRED            6 OUTER ITERATIONS 
       AND A TOTAL OF         11 INNER ITERATIONS.
    ------------------------------------------------

 NO OUTPUT CONTROL FOR STRESS PERIOD   12   TIME STEP   23
 
 SOLVING FOR HEAD 
                                                   Max.-Head-Change                         Max.-Flux-Residual
  Residual-Control   Outer-Iter.   Inner-Iter.     Column Row Layer    Maximum-Head-Change  Column Row Layer    Maximum-Flux-Residual          L2-NORM 
          0                 1           3            55    5     1      -0.3047564444E+00      55    5    1        -0.7325719659E-02      0.6338550742E-01
          0                 2           2            55    5     1       0.2358102603E-01      55    5    1         0.6500961739E-03      0.6191740532E-02
          0                 3           2            55    5     1      -0.1753213912E-02      55    5    1        -0.5898894997E-04      0.5983122999E-03
          0                 4           2            55    7     1       0.1324761789E-03      55    4    1        -0.5872109834E-05      0.5275617911E-04
          0                 5           1            55    7     1      -0.9051876805E-05      55    4    1         0.4773382896E-06      0.4056242614E-05
          0                 6           1            55    7     1       0.5334426278E-06      55    4    1        -0.3012175420E-07      0.2611666665E-06

    ------------------------------------------------
       NWT REQUIRED            6 OUTER ITERATIONS 
       AND A TOTAL OF         11 INNER ITERATIONS.
    ------------------------------------------------

 NO OUTPUT CONTROL FOR STRESS PERIOD   12   TIME STEP   24
 
 SOLVING FOR HEAD 
                                                   Max.-Head-Change                         Max.-Flux-Residual
  Residual-Control   Outer-Iter.   Inner-Iter.     Column Row Layer    Maximum-Head-Change  Column Row Layer    Maximum-Flux-Residual          L2-NORM 
          0                 1           3            55    5     1      -0.3324071203E+00      55    5    1        -0.7217767338E-02      0.6339214504E-01
          0                 2           2            55    5     1       0.2562243283E-01      55    5    1         0.6229954766E-03      0.6191283353E-02
          0                 3           2            55    5     1      -0.1893799140E-02      55    5    1        -0.5663994569E-04      0.5986740575E-03
          0                 4           2            55    7     1       0.1407422489E-03      55    4    1        -0.5955434244E-05      0.5291514384E-04
          0                 5           1            55    7     1      -0.9579330441E-05      55    4    1         0.4885735724E-06      0.4082146924E-05
          0                 6           1            55    7     1       0.5618046625E-06      55    4    1        -0.3080305111E-07      0.2628134299E-06

    ------------------------------------------------
       NWT REQUIRED            6 OUTER ITERATIONS 
       AND A TOTAL OF         11 INNER ITERATIONS.
    ------------------------------------------------

 NO OUTPUT CONTROL FOR STRESS PERIOD   12   TIME STEP   25
 
 SOLVING FOR HEAD 
                                                   Max.-Head-Change                         Max.-Flux-Residual
  Residual-Control   Outer-Iter.   Inner-Iter.     Column Row Layer    Maximum-Head-Change  Column Row Layer    Maximum-Flux-Residual          L2-NORM 
          0                 1           3            55    5     1      -0.3647898673E+00      55    5    1        -0.7154449862E-02      0.6340730721E-01
          0                 2           2            55    5     1       0.2805289458E-01      55    5    1         0.5955827061E-03      0.6187989147E-02
          0                 3           2            55    5     1      -0.2064438090E-02      55    5    1        -0.5428899926E-04      0.5984057471E-03
          0                 4           2            55    7     1       0.1506468117E-03      55    4    1        -0.5996948405E-05      0.5301067810E-04
          0                 5           1            55    7     1      -0.1020881013E-04      55    4    1         0.4978857042E-06      0.4103499328E-05
          0                 6           1            55    7     1       0.5954253746E-06      55    4    1        -0.3138016047E-07      0.2640255847E-06

    ------------------------------------------------
       NWT REQUIRED            6 OUTER ITERATIONS 
       AND A TOTAL OF         11 INNER ITERATIONS.
    ------------------------------------------------

 NO OUTPUT CONTROL FOR STRESS PERIOD   12   TIME STEP   26
 
 SOLVING FOR HEAD 
                                                   Max.-Head-Change                         Max.-Flux-Residual
  Residual-Control   Outer-Iter.   Inner-Iter.     Column Row Layer    Maximum-Head-Change  Column Row Layer    Maximum-Flux-Residual          L2-NORM 
          0                 1           3            55    5     1      -0.4041356014E+00      55    5    1        -0.7146719045E-02      0.6343852897E-01
          0                 2           2            55    5     1       0.3102448199E-01      55    6    1         0.5704487964E-03      0.6186300735E-02
          0                 3           2            55    5     1      -0.2278087627E-02      55    5    1        -0.5182137540E-04      0.5984887500E-03
          0                 4           2            55    7     1       0.1624589911E-03      55    4    1        -0.5924772361E-05      0.5313203723E-04
          0                 5           1            55    7     1      -0.1095572698E-04      55    4    1         0.5010258018E-06      0.4125831120E-05
          0                 6           1            55    7     1       0.6348655123E-06      55    4    1        -0.3165189677E-07      0.2649948994E-06

    ------------------------------------------------
       NWT REQUIRED            6 OUTER ITERATIONS 
       AND A TOTAL OF         11 INNER ITERATIONS.
    ------------------------------------------------

 NO OUTPUT CONTROL FOR STRESS PERIOD   12   TIME STEP   27
 
 SOLVING FOR HEAD 
                                                   Max.-Head-Change                         Max.-Flux-Residual
  Residual-Control   Outer-Iter.   Inner-Iter.     Column Row Layer    Maximum-Head-Change  Column Row Layer    Maximum-Flux-Residual          L2-NORM 
          0                 1           3            55    5     1      -0.4480790761E+00      55    5    1        -0.7193271452E-02      0.6345445387E-01
          0                 2           2            55    5     1       0.3422289762E-01      55    6    1         0.5771705457E-03      0.6186238202E-02
          0                 3           2            55    5     1      -0.2504189649E-02      55    6    1        -0.5183841280E-04      0.5987959455E-03
          0                 4           2            55    7     1       0.1759388665E-03      55    4    1        -0.6045386771E-05      0.5326177822E-04
          0                 5           1            55    7     1      -0.1180875943E-04      55    4    1         0.5152341739E-06      0.4147613703E-05
          0                 6           1            55    7     1       0.6796062588E-06      55    4    1        -0.3227439638E-07      0.2655417550E-06

    ------------------------------------------------
       NWT REQUIRED            6 OUTER ITERATIONS 
       AND A TOTAL OF         11 INNER ITERATIONS.
    ------------------------------------------------

 NO OUTPUT CONTROL FOR STRESS PERIOD   12   TIME STEP   28
 
 SOLVING FOR HEAD 
                                                   Max.-Head-Change                         Max.-Flux-Residual
  Residual-Control   Outer-Iter.   Inner-Iter.     Column Row Layer    Maximum-Head-Change  Column Row Layer    Maximum-Flux-Residual          L2-NORM 
          0                 1           3            55    5     1      -0.4985924704E+00      55    5    1        -0.7253106799E-02      0.6346045674E-01
          0                 2           3            55    5     1       0.3781969245E-01      55    6    1         0.5881942792E-03      0.6182825042E-02
          0                 3           2            55    5     1      -0.2756956195E-02      55    6    1        -0.5282046300E-04      0.5987975697E-03
          0                 4           2            55    7     1       0.1911279928E-03      55    4    1        -0.6132242078E-05      0.5334960571E-04
          0                 5           1            55    7     1      -0.1276506297E-04      55    4    1         0.5271337489E-06      0.4165121517E-05
          0                 6           1            55    7     1       0.7290221500E-06      55    4    1        -0.3260213499E-07      0.2653767563E-06

    ------------------------------------------------
       NWT REQUIRED            6 OUTER ITERATIONS 
       AND A TOTAL OF         12 INNER ITERATIONS.
    ------------------------------------------------

 NO OUTPUT CONTROL FOR STRESS PERIOD   12   TIME STEP   29
 
 SOLVING FOR HEAD 
                                                   Max.-Head-Change                         Max.-Flux-Residual
  Residual-Control   Outer-Iter.   Inner-Iter.     Column Row Layer    Maximum-Head-Change  Column Row Layer    Maximum-Flux-Residual          L2-NORM 
          0                 1           3            55    5     1      -0.5577065019E+00      55    5    1        -0.7341383213E-02      0.6346934706E-01
          0                 2           3            55    5     1       0.4195761963E-01      55    6    1         0.6045978304E-03      0.6177671706E-02
          0                 3           2            55    5     1      -0.3047823408E-02      55    6    1        -0.5426100439E-04      0.5982877968E-03
          0                 4           2            55    7     1       0.2083912363E-03      55    4    1        -0.6195395367E-05      0.5338584729E-04
          0                 5           1            55    7     1      -0.1384433977E-04      55    4    1         0.5379625760E-06      0.4178892415E-05
          0                 6           1            55    7     1       0.7842050286E-06      50    4    1        -0.3345132527E-07      0.2646562425E-06

    ------------------------------------------------
       NWT REQUIRED            6 OUTER ITERATIONS 
       AND A TOTAL OF         12 INNER ITERATIONS.
    ------------------------------------------------

 NO OUTPUT CONTROL FOR STRESS PERIOD   12   TIME STEP   30



 STREAM LISTING     PERIOD     12   STEP       30

 LAYER ROW COL. STREAM  RCH.   FLOW INTO    STREAM     FLOW OUT OF   OVRLND.    DIRECT     STREAM      STREAM      STREAM     STREAM  STREAMBED   FLOW TO   CHNG. UNSAT. 
                SEG.NO.  NO.   STRM. RCH.    LOSS       STRM. RCH.   RUNOFF     PRECIP       ET         HEAD        DEPTH      WIDTH  CONDCTNC.   WAT. TAB.

   1    4    1     1     1    2.2080E+00  9.5306E-04   2.2070E+00  0.000E+00  0.000E+00  0.000E+00  1.40954E+02  1.104E+00  3.134E+00  5.940E-04  1.072E-03 -1.185E-04
   1    4    2     1     2    2.2070E+00  9.5279E-04   2.2061E+00  0.000E+00  0.000E+00  0.000E+00  1.40654E+02  1.104E+00  3.134E+00  5.939E-04  1.066E-03 -1.136E-04
   1    4    3     1     3    2.2061E+00  9.5251E-04   2.2051E+00  0.000E+00  0.000E+00  0.000E+00  1.40354E+02  1.104E+00  3.133E+00  5.939E-04  1.065E-03 -1.128E-04
   1    4    4     1     4    2.2051E+00  9.5224E-04   2.2042E+00  0.000E+00  0.000E+00  0.000E+00  1.40054E+02  1.104E+00  3.133E+00  5.938E-04  1.064E-03 -1.117E-04
   1    4    5     1     5    2.2042E+00  9.5196E-04   2.2032E+00  0.000E+00  0.000E+00  0.000E+00  1.39753E+02  1.103E+00  3.133E+00  5.937E-04  1.062E-03 -1.104E-04
   1    4    6     1     6    2.2032E+00  9.5169E-04   2.2023E+00  0.000E+00  0.000E+00  0.000E+00  1.39453E+02  1.103E+00  3.132E+00  5.936E-04  1.060E-03 -1.088E-04
   1    4    7     1     7    2.2023E+00  9.5142E-04   2.2013E+00  0.000E+00  0.000E+00  0.000E+00  1.39153E+02  1.103E+00  3.132E+00  5.935E-04  1.058E-03 -1.069E-04
   1    4    8     1     8    2.2013E+00  9.5114E-04   2.2004E+00  0.000E+00  0.000E+00  0.000E+00  1.38853E+02  1.103E+00  3.132E+00  5.935E-04  1.056E-03 -1.047E-04
   1    4    9     1     9    2.2004E+00  9.5087E-04   2.1994E+00  0.000E+00  0.000E+00  0.000E+00  1.38552E+02  1.102E+00  3.132E+00  5.934E-04  1.053E-03 -1.022E-04
   1    4   10     1    10    2.1994E+00  9.5059E-04   2.1985E+00  0.000E+00  0.000E+00  0.000E+00  1.38252E+02  1.102E+00  3.131E+00  5.933E-04  1.050E-03 -9.946E-05
   1    4   11     1    11    2.1985E+00  9.5032E-04   2.1975E+00  0.000E+00  0.000E+00  0.000E+00  1.37952E+02  1.102E+00  3.131E+00  5.932E-04  1.047E-03 -9.643E-05
   1    4   12     1    12    2.1975E+00  9.5005E-04   2.1966E+00  0.000E+00  0.000E+00  0.000E+00  1.37652E+02  1.102E+00  3.131E+00  5.931E-04  1.043E-03 -9.314E-05
   1    4   13     1    13    2.1966E+00  9.4977E-04   2.1956E+00  0.000E+00  0.000E+00  0.000E+00  1.37351E+02  1.101E+00  3.130E+00  5.931E-04  1.039E-03 -8.958E-05
   1    4   14     1    14    2.1956E+00  9.4950E-04   2.1947E+00  0.000E+00  0.000E+00  0.000E+00  1.37051E+02  1.101E+00  3.130E+00  5.930E-04  1.035E-03 -8.578E-05
   1    4   15     1    15    2.1947E+00  9.4922E-04   2.1937E+00  0.000E+00  0.000E+00  0.000E+00  1.36751E+02  1.101E+00  3.130E+00  5.929E-04  1.038E-03 -8.858E-05
   1    4   16     1    16    2.1937E+00  9.4895E-04   2.1928E+00  0.000E+00  0.000E+00  0.000E+00  1.36451E+02  1.101E+00  3.129E+00  5.928E-04  1.044E-03 -9.534E-05
   1    4   17     1    17    2.1928E+00  9.4868E-04   2.1918E+00  0.000E+00  0.000E+00  0.000E+00  1.36150E+02  1.100E+00  3.129E+00  5.927E-04  1.051E-03 -1.026E-04
   1    4   18     1    18    2.1918E+00  9.4840E-04   2.1909E+00  0.000E+00  0.000E+00  0.000E+00  1.35850E+02  1.100E+00  3.129E+00  5.927E-04  1.046E-03 -9.765E-05
   1    4   19     1    19    2.1909E+00  9.4813E-04   2.1899E+00  0.000E+00  0.000E+00  0.000E+00  1.35550E+02  1.100E+00  3.129E+00  5.926E-04  1.041E-03 -9.247E-05
   1    4   20     1    20    2.1899E+00  9.4786E-04   2.1890E+00  0.000E+00  0.000E+00  0.000E+00  1.35250E+02  1.100E+00  3.128E+00  5.925E-04  1.035E-03 -8.711E-05
   1    4   21     1    21    2.1890E+00  9.4758E-04   2.1880E+00  0.000E+00  0.000E+00  0.000E+00  1.34950E+02  1.100E+00  3.128E+00  5.924E-04  1.029E-03 -8.160E-05
   1    4   22     1    22    2.1880E+00  9.4731E-04   2.1871E+00  0.000E+00  0.000E+00  0.000E+00  1.34649E+02  1.099E+00  3.128E+00  5.923E-04  1.023E-03 -7.599E-05
   1    4   23     1    23    2.1871E+00  9.4704E-04   2.1861E+00  0.000E+00  0.000E+00  0.000E+00  1.34349E+02  1.099E+00  3.127E+00  5.923E-04  1.017E-03 -7.031E-05
   1    4   24     1    24    2.1861E+00  9.4676E-04   2.1852E+00  0.000E+00  0.000E+00  0.000E+00  1.34049E+02  1.099E+00  3.127E+00  5.922E-04  1.011E-03 -6.460E-05
   1    4   25     1    25    2.1852E+00  9.4649E-04   2.1843E+00  0.000E+00  0.000E+00  0.000E+00  1.33749E+02  1.099E+00  3.127E+00  5.921E-04  1.005E-03 -5.891E-05
   1    4   26     1    26    2.1843E+00  9.4622E-04   2.1833E+00  0.000E+00  0.000E+00  0.000E+00  1.33448E+02  1.098E+00  3.127E+00  5.920E-04  9.995E-04 -5.330E-05
   1    4   27     1    27    2.1833E+00  9.4594E-04   2.1824E+00  0.000E+00  0.000E+00  0.000E+00  1.33148E+02  1.098E+00  3.126E+00  5.919E-04  9.938E-04 -4.782E-05
   1    4   28     1    28    2.1824E+00  9.4567E-04   2.1814E+00  0.000E+00  0.000E+00  0.000E+00  1.32848E+02  1.098E+00  3.126E+00  5.919E-04  9.882E-04 -4.256E-05
   1    4   29     1    29    2.1814E+00  9.4540E-04   2.1805E+00  0.000E+00  0.000E+00  0.000E+00  1.32548E+02  1.098E+00  3.126E+00  5.918E-04  9.830E-04 -3.756E-05
   1    4   30     1    30    2.1805E+00  9.4513E-04   2.1795E+00  0.000E+00  0.000E+00  0.000E+00  1.32247E+02  1.097E+00  3.125E+00  5.917E-04  9.780E-04 -3.292E-05
   1    4   31     1    31    2.1795E+00  9.4485E-04   2.1786E+00  0.000E+00  0.000E+00  0.000E+00  1.31947E+02  1.097E+00  3.125E+00  5.916E-04  9.736E-04 -2.870E-05
   1    4   32     1    32    2.1786E+00  9.4458E-04   2.1776E+00  0.000E+00  0.000E+00  0.000E+00  1.31647E+02  1.097E+00  3.125E+00  5.915E-04  9.696E-04 -2.499E-05
   1    4   33     1    33    2.1776E+00  9.4431E-04   2.1767E+00  0.000E+00  0.000E+00  0.000E+00  1.31347E+02  1.097E+00  3.124E+00  5.915E-04  9.661E-04 -2.184E-05
   1    4   34     1    34    2.1767E+00  9.4404E-04   2.1757E+00  0.000E+00  0.000E+00  0.000E+00  1.31046E+02  1.096E+00  3.124E+00  5.914E-04  9.634E-04 -1.932E-05
   1    4   35     1    35    2.1757E+00  9.4376E-04   2.1748E+00  0.000E+00  0.000E+00  0.000E+00  1.30746E+02  1.096E+00  3.124E+00  5.913E-04  9.611E-04 -1.737E-05
   1    4   36     1    36    2.1748E+00  9.4349E-04   2.1739E+00  0.000E+00  0.000E+00  0.000E+00  1.30446E+02  1.096E+00  3.124E+00  5.912E-04  1.030E-03 -8.686E-05
   1    4   37     1    37    2.1739E+00  9.4322E-04   2.1729E+00  0.000E+00  0.000E+00  0.000E+00  1.30146E+02  1.096E+00  3.123E+00  5.911E-04  1.047E-03 -1.038E-04
   1    4   38     1    38    2.1729E+00  9.4295E-04   2.1720E+00  0.000E+00  0.000E+00  0.000E+00  1.29845E+02  1.095E+00  3.123E+00  5.911E-04  1.065E-03 -1.218E-04
   1    4   39     1    39    2.1720E+00  9.4267E-04   2.1710E+00  0.000E+00  0.000E+00  0.000E+00  1.29545E+02  1.095E+00  3.123E+00  5.910E-04  1.123E-03 -1.800E-04
   1    4   40     1    40    2.1710E+00  9.4240E-04   2.1701E+00  0.000E+00  0.000E+00  0.000E+00  1.29245E+02  1.095E+00  3.122E+00  5.909E-04  1.123E-03 -1.807E-04
   1    4   41     1    41    2.1701E+00  9.4213E-04   2.1691E+00  0.000E+00  0.000E+00  0.000E+00  1.28945E+02  1.095E+00  3.122E+00  5.908E-04  1.123E-03 -1.810E-04
   1    4   42     1    42    2.1691E+00  9.4186E-04   2.1682E+00  0.000E+00  0.000E+00  0.000E+00  1.28644E+02  1.094E+00  3.122E+00  5.907E-04  1.130E-03 -1.884E-04
   1    4   43     1    43    2.1682E+00  9.4159E-04   2.1673E+00  0.000E+00  0.000E+00  0.000E+00  1.28344E+02  1.094E+00  3.122E+00  5.907E-04  1.167E-03 -2.250E-04
   1    4   44     1    44    2.1673E+00  9.4132E-04   2.1663E+00  0.000E+00  0.000E+00  0.000E+00  1.28044E+02  1.094E+00  3.121E+00  5.906E-04  1.339E-03 -3.974E-04
   1    4   45     1    45    2.1663E+00  9.4104E-04   2.1654E+00  0.000E+00  0.000E+00  0.000E+00  1.27744E+02  1.094E+00  3.121E+00  5.905E-04  1.413E-03 -4.718E-04
   1    4   46     1    46    2.1654E+00  9.4077E-04   2.1644E+00  0.000E+00  0.000E+00  0.000E+00  1.27443E+02  1.093E+00  3.121E+00  5.904E-04  1.486E-03 -5.454E-04
   1    4   47     1    47    2.1644E+00  9.4050E-04   2.1635E+00  0.000E+00  0.000E+00  0.000E+00  1.27143E+02  1.093E+00  3.120E+00  5.903E-04  1.509E-03 -5.684E-04
   1    4   48     1    48    2.1635E+00  9.4023E-04   2.1626E+00  0.000E+00  0.000E+00  0.000E+00  1.26843E+02  1.093E+00  3.120E+00  5.903E-04  1.685E-03 -7.451E-04
   1    4   49     1    49    2.1626E+00  9.3996E-04   2.1616E+00  0.000E+00  0.000E+00  0.000E+00  1.26543E+02  1.093E+00  3.120E+00  5.902E-04  1.646E-03 -7.062E-04
   1    4   50     1    50    2.1616E+00  9.3969E-04   2.1607E+00  0.000E+00  0.000E+00  0.000E+00  1.26242E+02  1.092E+00  3.119E+00  5.901E-04  1.637E-03 -6.973E-04
   1    4   51     1    51    2.1607E+00  9.3941E-04   2.1597E+00  0.000E+00  0.000E+00  0.000E+00  1.25942E+02  1.092E+00  3.119E+00  5.900E-04  1.635E-03 -6.955E-04
   1    4   52     1    52    2.1597E+00  9.3914E-04   2.1588E+00  0.000E+00  0.000E+00  0.000E+00  1.25642E+02  1.092E+00  3.119E+00  5.899E-04  1.629E-03 -6.898E-04
   1    4   53     1    53    2.1588E+00  9.3887E-04   2.1579E+00  0.000E+00  0.000E+00  0.000E+00  1.25342E+02  1.092E+00  3.119E+00  5.899E-04  1.624E-03 -6.855E-04
   1    4   54     1    54    2.1579E+00  9.3860E-04   2.1569E+00  0.000E+00  0.000E+00  0.000E+00  1.25041E+02  1.091E+00  3.118E+00  5.898E-04  1.608E-03 -6.695E-04
   1    4   55     1    55    2.1569E+00  9.3833E-04   2.1560E+00  0.000E+00  0.000E+00  0.000E+00  1.24741E+02  1.091E+00  3.118E+00  5.897E-04  1.562E-03 -6.239E-04
   1    4   56     1    56    2.1560E+00  9.3806E-04   2.1550E+00  0.000E+00  0.000E+00  0.000E+00  1.24441E+02  1.091E+00  3.118E+00  5.896E-04  1.585E-03 -6.473E-04
   1    4   57     1    57    2.1550E+00  9.3779E-04   2.1541E+00  0.000E+00  0.000E+00  0.000E+00  1.24141E+02  1.091E+00  3.117E+00  5.895E-04  1.627E-03 -6.894E-04
   1    4   58     1    58    2.1541E+00  9.3752E-04   2.1532E+00  0.000E+00  0.000E+00  0.000E+00  1.23840E+02  1.090E+00  3.117E+00  5.895E-04  1.450E-03 -5.124E-04
   1    4   59     1    59    2.1532E+00  9.3725E-04   2.1522E+00  0.000E+00  0.000E+00  0.000E+00  1.23540E+02  1.090E+00  3.117E+00  5.894E-04  1.409E-03 -4.713E-04
   1    4   60     1    60    2.1522E+00  9.3697E-04   2.1513E+00  0.000E+00  0.000E+00  0.000E+00  1.23240E+02  1.090E+00  3.117E+00  5.893E-04  1.319E-03 -3.819E-04
   1    4   61     1    61    2.1513E+00  9.3670E-04   2.1504E+00  0.000E+00  0.000E+00  0.000E+00  1.22940E+02  1.090E+00  3.116E+00  5.892E-04  1.237E-03 -2.998E-04
   1    4   62     1    62    2.1504E+00  9.3643E-04   2.1494E+00  0.000E+00  0.000E+00  0.000E+00  1.22639E+02  1.089E+00  3.116E+00  5.891E-04  1.107E-03 -1.705E-04
   1    4   63     1    63    2.1494E+00  9.3616E-04   2.1485E+00  0.000E+00  0.000E+00  0.000E+00  1.22339E+02  1.089E+00  3.116E+00  5.891E-04  1.053E-03 -1.170E-04
   1    4   64     1    64    2.1485E+00  9.3589E-04   2.1476E+00  0.000E+00  0.000E+00  0.000E+00  1.22039E+02  1.089E+00  3.115E+00  5.890E-04  1.050E-03 -1.136E-04
   1    4   65     1    65    2.1476E+00  9.3562E-04   2.1466E+00  0.000E+00  0.000E+00  0.000E+00  1.21739E+02  1.089E+00  3.115E+00  5.889E-04  1.045E-03 -1.095E-04
   1    4   66     1    66    2.1466E+00  9.3535E-04   2.1457E+00  0.000E+00  0.000E+00  0.000E+00  1.21438E+02  1.089E+00  3.115E+00  5.888E-04  9.724E-04 -3.703E-05
   1    4   67     1    67    2.1457E+00  9.3508E-04   2.1447E+00  0.000E+00  0.000E+00  0.000E+00  1.21138E+02  1.088E+00  3.115E+00  5.887E-04  9.642E-04 -2.911E-05
   1    4   68     1    68    2.1447E+00  9.3481E-04   2.1438E+00  0.000E+00  0.000E+00  0.000E+00  1.20838E+02  1.088E+00  3.114E+00  5.887E-04  9.509E-04 -1.610E-05
   1    4   69     1    69    2.1438E+00  9.3454E-04   2.1429E+00  0.000E+00  0.000E+00  0.000E+00  1.20538E+02  1.088E+00  3.114E+00  5.886E-04  9.116E-04  2.297E-05
   1    4   70     1    70    2.1429E+00  9.3427E-04   2.1419E+00  0.000E+00  0.000E+00  0.000E+00  1.20238E+02  1.088E+00  3.114E+00  5.885E-04  8.816E-04  5.267E-05
   1    4   71     1    71    2.1419E+00  9.3400E-04   2.1410E+00  0.000E+00  0.000E+00  0.000E+00  1.19937E+02  1.087E+00  3.113E+00  5.884E-04  8.814E-04  5.262E-05
   1    4   72     1    72    2.1410E+00  9.3373E-04   2.1401E+00  0.000E+00  0.000E+00  0.000E+00  1.19637E+02  1.087E+00  3.113E+00  5.883E-04  8.819E-04  5.183E-05
   1    4   73     1    73    2.1401E+00  9.3346E-04   2.1391E+00  0.000E+00  0.000E+00  0.000E+00  1.19337E+02  1.087E+00  3.113E+00  5.883E-04  8.832E-04  5.025E-05
   1    4   74     1    74    2.1391E+00  9.3319E-04   2.1382E+00  0.000E+00  0.000E+00  0.000E+00  1.19037E+02  1.087E+00  3.112E+00  5.882E-04  8.853E-04  4.793E-05
   1    4   75     1    75    2.1382E+00  9.3292E-04   2.1373E+00  0.000E+00  0.000E+00  0.000E+00  1.18736E+02  1.086E+00  3.112E+00  5.881E-04  8.880E-04  4.492E-05
   1    4   76     1    76    2.1373E+00  9.3265E-04   2.1363E+00  0.000E+00  0.000E+00  0.000E+00  1.18436E+02  1.086E+00  3.112E+00  5.880E-04  8.914E-04  4.129E-05
   1    4   77     1    77    2.1363E+00  9.3238E-04   2.1354E+00  0.000E+00  0.000E+00  0.000E+00  1.18136E+02  1.086E+00  3.112E+00  5.879E-04  8.953E-04  3.710E-05
   1    4   78     1    78    2.1354E+00  9.3211E-04   2.1345E+00  0.000E+00  0.000E+00  0.000E+00  1.17836E+02  1.086E+00  3.111E+00  5.879E-04  8.997E-04  3.241E-05
   1    4   79     1    79    2.1345E+00  9.3184E-04   2.1335E+00  0.000E+00  0.000E+00  0.000E+00  1.17535E+02  1.085E+00  3.111E+00  5.878E-04  9.046E-04  2.727E-05
   1    4   80     1    80    2.1335E+00  9.3157E-04   2.1326E+00  0.000E+00  0.000E+00  0.000E+00  1.17235E+02  1.085E+00  3.111E+00  5.877E-04  9.099E-04  2.171E-05
   1    4   81     1    81    2.1326E+00  9.3130E-04   2.1317E+00  0.000E+00  0.000E+00  0.000E+00  1.16935E+02  1.085E+00  3.110E+00  5.876E-04  9.155E-04  1.577E-05
   1    4   82     1    82    2.1317E+00  9.3103E-04   2.1308E+00  0.000E+00  0.000E+00  0.000E+00  1.16635E+02  1.085E+00  3.110E+00  5.876E-04  9.215E-04  9.490E-06
   1    4   83     1    83    2.1308E+00  9.3076E-04   2.1298E+00  0.000E+00  0.000E+00  0.000E+00  1.16334E+02  1.084E+00  3.110E+00  5.875E-04  9.279E-04  2.869E-06
   1    4   84     1    84    2.1298E+00  9.3049E-04   2.1289E+00  0.000E+00  0.000E+00  0.000E+00  1.16034E+02  1.084E+00  3.110E+00  5.874E-04  9.346E-04 -4.072E-06
   1    4   85     1    85    2.1289E+00  9.3023E-04   2.1280E+00  0.000E+00  0.000E+00  0.000E+00  1.15734E+02  1.084E+00  3.109E+00  5.873E-04  9.415E-04 -1.132E-05
   1    4   86     1    86    2.1280E+00  9.2996E-04   2.1270E+00  0.000E+00  0.000E+00  0.000E+00  1.15434E+02  1.084E+00  3.109E+00  5.872E-04  9.488E-04 -1.889E-05
   1    4   87     1    87    2.1270E+00  9.2969E-04   2.1261E+00  0.000E+00  0.000E+00  0.000E+00  1.15133E+02  1.083E+00  3.109E+00  5.872E-04  9.565E-04 -2.679E-05
   1    4   88     1    88    2.1261E+00  9.2942E-04   2.1252E+00  0.000E+00  0.000E+00  0.000E+00  1.14833E+02  1.083E+00  3.108E+00  5.871E-04  9.645E-04 -3.504E-05
   1    4   89     1    89    2.1252E+00  9.2915E-04   2.1242E+00  0.000E+00  0.000E+00  0.000E+00  1.14533E+02  1.083E+00  3.108E+00  5.870E-04  9.728E-04 -4.366E-05
   1    4   90     1    90    2.1242E+00  9.2888E-04   2.1233E+00  0.000E+00  0.000E+00  0.000E+00  1.14233E+02  1.083E+00  3.108E+00  5.869E-04  9.816E-04 -5.268E-05
   1    4   91     1    91    2.1233E+00  9.2861E-04   2.1224E+00  0.000E+00  0.000E+00  0.000E+00  1.13932E+02  1.082E+00  3.108E+00  5.868E-04  9.908E-04 -6.214E-05
   1    4   92     1    92    2.1224E+00  9.2834E-04   2.1215E+00  0.000E+00  0.000E+00  0.000E+00  1.13632E+02  1.082E+00  3.107E+00  5.868E-04  1.000E-03 -7.206E-05
   1    4   93     1    93    2.1215E+00  9.2807E-04   2.1205E+00  0.000E+00  0.000E+00  0.000E+00  1.13332E+02  1.082E+00  3.107E+00  5.867E-04  1.011E-03 -8.249E-05
   1    4   94     1    94    2.1205E+00  9.2781E-04   2.1196E+00  0.000E+00  0.000E+00  0.000E+00  1.13032E+02  1.082E+00  3.107E+00  5.866E-04  1.021E-03 -9.345E-05
   1    4   95     1    95    2.1196E+00  9.2754E-04   2.1187E+00  0.000E+00  0.000E+00  0.000E+00  1.12731E+02  1.081E+00  3.106E+00  5.865E-04  1.033E-03 -1.050E-04
   1    4   96     1    96    2.1187E+00  9.2727E-04   2.1177E+00  0.000E+00  0.000E+00  0.000E+00  1.12431E+02  1.081E+00  3.106E+00  5.864E-04  1.044E-03 -1.171E-04
   1    4   97     1    97    2.1177E+00  9.2700E-04   2.1168E+00  0.000E+00  0.000E+00  0.000E+00  1.12131E+02  1.081E+00  3.106E+00  5.864E-04  1.057E-03 -1.297E-04
   1    4   98     1    98    2.1168E+00  9.2673E-04   2.1159E+00  0.000E+00  0.000E+00  0.000E+00  1.11831E+02  1.081E+00  3.105E+00  5.863E-04  1.070E-03 -1.430E-04
   1    4   99     1    99    2.1159E+00  9.2646E-04   2.1150E+00  0.000E+00  0.000E+00  0.000E+00  1.11530E+02  1.080E+00  3.105E+00  5.862E-04  1.083E-03 -1.568E-04
   1    4  100     1   100    2.1150E+00  9.2620E-04   2.1140E+00  0.000E+00  0.000E+00  0.000E+00  1.11230E+02  1.080E+00  3.105E+00  5.861E-04  1.097E-03 -1.710E-04



1
  VOLUMETRIC BUDGET FOR UNSATURATED ZONE BENEATH STREAMS AT END OF TIME STEP    30 STRESS PERIOD  12
  ------------------------------------------------------------------------------------------------

    CUMULATIVE VOLUMES             L**3    RATES FOR THIS TIME STEP         L**3/T
    ------------------                     ------------------------


          STREAM LOSS =     13034716.0000            STREAM LOSS =        9.3958E-02
    CHANGE IN STORAGE =      1106377.2500      CHANGE IN STORAGE =       -1.5868E-02
       RECHARGE TO GW =     11932275.0000         RECHARGE TO GW =            0.1098

             TOTAL IN =     13034716.0000               TOTAL IN =            0.1098

            TOTAL OUT =     13038652.0000              TOTAL OUT =            0.1098

             IN - OUT =        -3936.0000               IN - OUT =        5.1409E-07

  PERCENT DISCREPANCY =           -0.01      PERCENT DISCREPANCY =             0.00



1
  VOLUMETRIC BUDGET FOR ENTIRE MODEL AT END OF TIME STEP   30, STRESS PERIOD  12
  ------------------------------------------------------------------------------

     CUMULATIVE VOLUMES      L**3       RATES FOR THIS TIME STEP      L**3/T
     ------------------                 ------------------------

           IN:                                      IN:
           ---                                      ---
             STORAGE     =    65406688.0000               STORAGE     =           1.5264
       CONSTANT HEAD     =           0.0000         CONSTANT HEAD     =           0.0000
               WELLS     =           0.0000                 WELLS     =           0.0000
     HEAD DEP BOUNDS     =           0.0000       HEAD DEP BOUNDS     =           0.0000
      STREAM LEAKAGE     =    11932305.0000        STREAM LEAKAGE     =           0.1098

                TOTAL IN =    77338992.0000                  TOTAL IN =           1.6362

          OUT:                                     OUT:
          ----                                     ----
             STORAGE     =     2373643.2500               STORAGE     =           0.0000
       CONSTANT HEAD     =           0.0000         CONSTANT HEAD     =           0.0000
               WELLS     =    61815600.0000                 WELLS     =           1.4600
     HEAD DEP BOUNDS     =    13149751.0000       HEAD DEP BOUNDS     =           0.1762
      STREAM LEAKAGE     =           0.0000        STREAM LEAKAGE     =           0.0000

               TOTAL OUT =    77338992.0000                 TOTAL OUT =           1.6362

                IN - OUT =           0.0000                  IN - OUT =           0.0000

     PERCENT DISCREPANCY =           0.00         PERCENT DISCREPANCY =           0.00






         TIME SUMMARY AT END OF TIME STEP   30 IN STRESS PERIOD   12
                    SECONDS     MINUTES      HOURS       DAYS        YEARS
                    -----------------------------------------------------------
   TIME STEP LENGTH 2.49961E+05  4166.0      69.434      2.8931     7.92080E-03
 STRESS PERIOD TIME 2.59200E+06  43200.      720.00      30.000     8.21355E-02
         TOTAL TIME 3.11040E+07 5.18400E+05  8640.0      360.00     0.98563    
1
1
                            STRESS PERIOD NO.   13, LENGTH =   2592000.    
                            -----------------------------------------------

                              NUMBER OF TIME STEPS =    30

                               MULTIPLIER FOR DELT =     1.100

                            INITIAL TIME STEP SIZE =   15757.40    

 REUSING NON-PARAMETER WELLS FROM LAST STRESS PERIOD

      1 WELL 

 REUSING NON-PARAMETER GHB CELLS FROM LAST STRESS PERIOD

      7 GHB CELLS



 CLASSIFICATION & COUNT OF STREAM SEGMENTS BASED ON SOURCE OF INFLOW:

                HEADWATER     DIVERSION     RECEIVES TRIBUTARY FLOW
                ---------     ---------     -----------------------
                     1              0               0



                    INPUT DATA FOR EACH STREAM SEGMENT
 ---------------------------------------------------------------------------------------------

 SEGMENT    SEG.     INFLOW   OVERLAND   STREAM    STREAM   ICALC  OUTFLOW  DIVERSION PRIORITY
    NO.    LENGTH     RATE     RUNOFF      ET       PPT.    METH.  TO SEG.  FROM SEG.    NO.

      1  2.000E+04 1.268E+00 0.000E+00 0.000E+00 0.000E+00    2        0        0        0


         STREAMBED PROPERTIES AND STREAM DIMENSIONS

 SEGMENT     BED HYD. COND.      BED THICKNESS     ELEV.-TOP OF BED     WIDTH OF STREAM     DEPTH OF STREAM    STREAM ROUGHNESS
    No.     UPPER     LOWER     UPPER     LOWER     UPPER     LOWER     UPPER     LOWER     UPPER     LOWER   CHANNEL      BANK

     1  3.500E-07 3.500E-07                                                                                 3.000E-02 4.000E-02

  EIGHT POINT CROSS-SECTION DATA FOR SEGMENTS WITH ICALC = 2
    X VALUES X VALUES START FROM LEFT SIDE LOOKING DOWNSTREAM

     SEGMENT NO.        X1        X2        X3        X4        X5        X6        X7        X8
            1      0.000E+00 2.000E+00 4.000E+00 6.000E+00 8.000E+00 1.000E+01 1.200E+01 1.400E+01

    Z VALUES ARE RELATIVE TO STREAMBED ELEVATION

     SEGMENT NO.          Z1        Z2        Z3        Z4        Z5        Z6        Z7        Z8
            1      6.000E+00 4.500E+00 3.500E+00 0.000E+00 3.000E-01 3.500E+00 4.500E+00 6.000E+00



 
 SOLVING FOR HEAD 
                                                   Max.-Head-Change                         Max.-Flux-Residual
  Residual-Control   Outer-Iter.   Inner-Iter.     Column Row Layer    Maximum-Head-Change  Column Row Layer    Maximum-Flux-Residual          L2-NORM 
          0                 1           2            55    5     1      -0.1789143038E+01      55    5    1        -0.4874522089E+00      0.6912886085E+00
          0                 2           2            55    5     1       0.1717787805E+00      55    5    1         0.4719730463E-01      0.6696172046E-01
          0                 3           2            55    5     1      -0.1535182071E-01      55    5    1        -0.4260828899E-02      0.6046249327E-02
          0                 4           2            55    5     1       0.1218261481E-02      55    5    1         0.3411890392E-03      0.4842292915E-03
          0                 5           1            55    5     1      -0.8486785203E-04      55    5    1        -0.2398591033E-04      0.3404454001E-04
          0                 6           1            55    5     1       0.5096070688E-05      55    5    1         0.1453448222E-05      0.2063030786E-05
          0                 7           1            55    5     1      -0.2574979128E-06      55    5    1        -0.7411147618E-07      0.1051952603E-06

    ------------------------------------------------
       NWT REQUIRED            7 OUTER ITERATIONS 
       AND A TOTAL OF         11 INNER ITERATIONS.
    ------------------------------------------------

 NO OUTPUT CONTROL FOR STRESS PERIOD   13   TIME STEP    1
 
 SOLVING FOR HEAD 
                                                   Max.-Head-Change                         Max.-Flux-Residual
  Residual-Control   Outer-Iter.   Inner-Iter.     Column Row Layer    Maximum-Head-Change  Column Row Layer    Maximum-Flux-Residual          L2-NORM 
          0                 1           2            55    5     1      -0.1544163711E+01      55    5    1        -0.3728354289E+00      0.5312614017E+00
          0                 2           2            55    5     1       0.1477796205E+00      55    5    1         0.3546705985E-01      0.5089789168E-01
          0                 3           2            55    5     1      -0.1322342837E-01      55    5    1        -0.3209334566E-02      0.4603513599E-02
          0                 4           2            55    5     1       0.1049165185E-02      55    5    1         0.2569302056E-03      0.3687092726E-03
          0                 5           1            55    5     1      -0.7308821474E-04      55    5    1        -0.1806281033E-04      0.2592576550E-04
          0                 6           1            55    5     1       0.4388726421E-05      55    5    1         0.1094530728E-05      0.1571119571E-05
          0                 7           1            55    5     1      -0.2217567290E-06      55    5    1        -0.5581024343E-07      0.8011369011E-07

    ------------------------------------------------
       NWT REQUIRED            7 OUTER ITERATIONS 
       AND A TOTAL OF         11 INNER ITERATIONS.
    ------------------------------------------------

 NO OUTPUT CONTROL FOR STRESS PERIOD   13   TIME STEP    2
 
 SOLVING FOR HEAD 
                                                   Max.-Head-Change                         Max.-Flux-Residual
  Residual-Control   Outer-Iter.   Inner-Iter.     Column Row Layer    Maximum-Head-Change  Column Row Layer    Maximum-Flux-Residual          L2-NORM 
          0                 1           2            55    5     1      -0.1368893191E+01      55    5    1        -0.2924783486E+00      0.4283494036E+00
          0                 2           2            55    5     1       0.1304992271E+00      55    5    1         0.2752419822E-01      0.4103865900E-01
          0                 3           2            55    5     1      -0.1168089664E-01      55    5    1        -0.2493333025E-02      0.3713026899E-02
          0                 4           2            55    5     1       0.9265983687E-03      55    5    1         0.1995872339E-03      0.2975207491E-03
          0                 5           1            55    5     1      -0.6454463490E-04      55    5    1        -0.1403159906E-04      0.2092632572E-04
          0                 6           1            55    5     1       0.3875550093E-05      55    5    1         0.8502555271E-06      0.1268345239E-05
          0                 7           1            55    5     1      -0.1958236801E-06      55    5    1        -0.4335462600E-07      0.6467872147E-07

    ------------------------------------------------
       NWT REQUIRED            7 OUTER ITERATIONS 
       AND A TOTAL OF         11 INNER ITERATIONS.
    ------------------------------------------------

 NO OUTPUT CONTROL FOR STRESS PERIOD   13   TIME STEP    3
 
 SOLVING FOR HEAD 
                                                   Max.-Head-Change                         Max.-Flux-Residual
  Residual-Control   Outer-Iter.   Inner-Iter.     Column Row Layer    Maximum-Head-Change  Column Row Layer    Maximum-Flux-Residual          L2-NORM 
          0                 1           2            55    5     1      -0.1246160684E+01      55    5    1        -0.2359502911E+00      0.3602868143E+00
          0                 2           2            55    5     1       0.1183735408E+00      55    5    1         0.2203336196E-01      0.3457546198E-01
          0                 3           2            55    5     1      -0.1059353351E-01      55    5    1        -0.1997353795E-02      0.3129008604E-02
          0                 4           2            55    5     1       0.8401062609E-03      55    5    1         0.1598736262E-03      0.2509098254E-03
          0                 5           1            55    5     1      -0.5851183881E-04      55    5    1        -0.1123967996E-04      0.1765658825E-04
          0                 6           1            55    5     1       0.3513079576E-05      55    5    1         0.6810767049E-06      0.1070459634E-05
          0                 7           1            55    5     1      -0.1775041038E-06      55    5    1        -0.3472817989E-07      0.5459413079E-07

    ------------------------------------------------
       NWT REQUIRED            7 OUTER ITERATIONS 
       AND A TOTAL OF         11 INNER ITERATIONS.
    ------------------------------------------------

 NO OUTPUT CONTROL FOR STRESS PERIOD   13   TIME STEP    4
 
 SOLVING FOR HEAD 
                                                   Max.-Head-Change                         Max.-Flux-Residual
  Residual-Control   Outer-Iter.   Inner-Iter.     Column Row Layer    Maximum-Head-Change  Column Row Layer    Maximum-Flux-Residual          L2-NORM 
          0                 1           2            55    5     1      -0.1160422690E+01      55    5    1        -0.1951950083E+00      0.3131139433E+00
          0                 2           2            55    5     1       0.1099111972E+00      55    5    1         0.1810266716E-01      0.3010230001E-01
          0                 3           2            55    5     1      -0.9832057402E-02      55    5    1        -0.1642074038E-02      0.2724823992E-02
          0                 4           2            55    5     1       0.7794166884E-03      55    5    1         0.1314278658E-03      0.2187110104E-03
          0                 5           1            55    5     1      -0.5427366083E-04      55    5    1        -0.9239893385E-05      0.1540187534E-04
          0                 6           1            55    5     1       0.3258268360E-05      55    5    1         0.5598979176E-06      0.9341714560E-06
          0                 7           1            55    5     1      -0.1646217437E-06      55    5    1        -0.2854926034E-07      0.4765324850E-07

    ------------------------------------------------
       NWT REQUIRED            7 OUTER ITERATIONS 
       AND A TOTAL OF         11 INNER ITERATIONS.
    ------------------------------------------------

 NO OUTPUT CONTROL FOR STRESS PERIOD   13   TIME STEP    5
 
 SOLVING FOR HEAD 
                                                   Max.-Head-Change                         Max.-Flux-Residual
  Residual-Control   Outer-Iter.   Inner-Iter.     Column Row Layer    Maximum-Head-Change  Column Row Layer    Maximum-Flux-Residual          L2-NORM 
          0                 1           2            55    5     1      -0.1103503516E+01      55    5    1        -0.1653958289E+00      0.2794370325E+00
          0                 2           2            55    5     1       0.1042201790E+00      55    5    1         0.1522668428E-01      0.2689659806E-01
          0                 3           2            55    5     1      -0.9319632505E-02      55    5    1        -0.1382160765E-02      0.2434754161E-02
          0                 4           2            55    5     1       0.7383307004E-03      55    5    1         0.1106174142E-03      0.1956506556E-03
          0                 5           1            55    5     1      -0.5139411941E-04      55    5    1        -0.7776883691E-05      0.1379189499E-04
          0                 6           1            55    5     1       0.3084788565E-05      55    5    1         0.4712455811E-06      0.8370873788E-06
          0                 7           1            55    5     1      -0.1558424066E-06      55    5    1        -0.2402886823E-07      0.4271604838E-07

    ------------------------------------------------
       NWT REQUIRED            7 OUTER ITERATIONS 
       AND A TOTAL OF         11 INNER ITERATIONS.
    ------------------------------------------------

 NO OUTPUT CONTROL FOR STRESS PERIOD   13   TIME STEP    6
 
 SOLVING FOR HEAD 
                                                   Max.-Head-Change                         Max.-Flux-Residual
  Residual-Control   Outer-Iter.   Inner-Iter.     Column Row Layer    Maximum-Head-Change  Column Row Layer    Maximum-Flux-Residual          L2-NORM 
          0                 1           2            55    5     1      -0.1068058147E+01      55    5    1        -0.1429908438E+00      0.2544654939E+00
          0                 2           2            55    5     1       0.1005218628E+00      55    5    1         0.1305122627E-01      0.2450699875E-01
          0                 3           2            55    5     1      -0.8985454673E-02      55    5    1        -0.1185668396E-02      0.2219175601E-02
          0                 4           2            55    5     1       0.7116262220E-03      55    5    1         0.9488401565E-04      0.1785090462E-03
          0                 5           1            55    5     1      -0.4951933955E-04      55    5    1        -0.6670805276E-05      0.1259615802E-04
          0                 6           1            55    5     1       0.2971371550E-05      55    5    1         0.4042217757E-06      0.7651463552E-06
          0                 7           1            55    5     1      -0.1500765381E-06      55    5    1        -0.2061131721E-07      0.3906753926E-07

    ------------------------------------------------
       NWT REQUIRED            7 OUTER ITERATIONS 
       AND A TOTAL OF         11 INNER ITERATIONS.
    ------------------------------------------------

 NO OUTPUT CONTROL FOR STRESS PERIOD   13   TIME STEP    7
 
 SOLVING FOR HEAD 
                                                   Max.-Head-Change                         Max.-Flux-Residual
  Residual-Control   Outer-Iter.   Inner-Iter.     Column Row Layer    Maximum-Head-Change  Column Row Layer    Maximum-Flux-Residual          L2-NORM 
          0                 1           2            55    5     1      -0.1049918837E+01      55    5    1        -0.1257866183E+00      0.2354363824E+00
          0                 2           2            55    5     1       0.9839981287E-01      55    5    1         0.1136137045E-01      0.2267316856E-01
          0                 3           2            55    5     1      -0.8792556912E-02      55    5    1        -0.1033195775E-02      0.2054269494E-02
          0                 4           2            55    5     1       0.6958997030E-03      55    5    1         0.8267408035E-04      0.1654666129E-03
          0                 5           1            55    5     1      -0.4840418363E-04      55    5    1        -0.5812438225E-05      0.1169063727E-04
          0                 6           1            55    5     1       0.2903601798E-05      55    5    1         0.3522082259E-06      0.7108218179E-06
          0                 7           1            55    5     1      -0.1466257624E-06      55    5    1        -0.1795914117E-07      0.3631628679E-07

    ------------------------------------------------
       NWT REQUIRED            7 OUTER ITERATIONS 
       AND A TOTAL OF         11 INNER ITERATIONS.
    ------------------------------------------------

 NO OUTPUT CONTROL FOR STRESS PERIOD   13   TIME STEP    8
 
 SOLVING FOR HEAD 
                                                   Max.-Head-Change                         Max.-Flux-Residual
  Residual-Control   Outer-Iter.   Inner-Iter.     Column Row Layer    Maximum-Head-Change  Column Row Layer    Maximum-Flux-Residual          L2-NORM 
          0                 1           2            50    3     1      -0.9036960172E+00      55    5    1        -0.1125602361E+00      0.2208112750E+00
          0                 2           2            55    5     1       0.3206280258E+00      55    5    1        -0.9378880689E-01      0.1002574704E+00
          0                 3           2            55    5     1       0.1823815237E+00      55    5    1        -0.4711853503E-01      0.4813743649E-01
          0                 4           2            55    5     1       0.1135840736E+00      55    5    1        -0.2745899588E-01      0.2817067361E-01
          0                 5           1            55    5     1       0.7917000897E-01      55    5    1        -0.1729369876E-01      0.1772973569E-01
          0                 6           1            55    5     1       0.6196370241E-01      55    5    1        -0.1223773838E-01      0.1254723295E-01
          0                 7           1            55    5     1       0.5336051704E-01      55    5    1        -0.9707907374E-02      0.9953358657E-02
          0                 8           1            55    5     1       0.4905892571E-01      55    5    1        -0.8443102139E-02      0.8656578066E-02
          0                 9           1            55    5     1       0.4690812999E-01      55    5    1        -0.7810694000E-02      0.8008179924E-02
          0                10           1            55    5     1       0.4583273213E-01      55    5    1        -0.7494490155E-02      0.7683981172E-02
                                                   Max.-Head-Change                         Max.-Flux-Residual
  Residual-Control   Outer-Iter.   Inner-Iter.     Column Row Layer    Maximum-Head-Change  Column Row Layer    Maximum-Flux-Residual          L2-NORM 
          0                11           2            55    4     1       0.7271129996E-02      55    5    1         0.1100778631E+00      0.1100903813E+00
          0                12           1            55    4     1      -0.8807491626E-04      55    5    1         0.1852287926E-01      0.1852289309E-01
          0                13           1            55    5     1       0.7770258987E-05      55    5    1         0.2225060599E-02      0.2225060611E-02
          0                14           1            55    5     1      -0.1575016530E-06      55    5    1        -0.3947710630E-04      0.3947711643E-04

    ------------------------------------------------
       NWT REQUIRED           14 OUTER ITERATIONS 
       AND A TOTAL OF         19 INNER ITERATIONS.
    ------------------------------------------------

 NO OUTPUT CONTROL FOR STRESS PERIOD   13   TIME STEP    9
 
 WELLS WITH REDUCED PUMPING FOR STRESS PERIOD    13 TIME STEP     9
   LAY   ROW   COL         APPL.Q          ACT.Q        GW-HEAD       CELL-BOT
     1     5    55  -0.121002E+01  -0.120339E+01   0.106187E-02   0.000000E+00
 
 
 SOLVING FOR HEAD 
                                                   Max.-Head-Change                         Max.-Flux-Residual
  Residual-Control   Outer-Iter.   Inner-Iter.     Column Row Layer    Maximum-Head-Change  Column Row Layer    Maximum-Flux-Residual          L2-NORM 
          0                 1           2            50    3     1      -0.9054378785E+00      55    5    1        -0.9769656856E-01      0.2067702904E+00
          0                 2           2            50    3     1       0.8469719905E-01      55    5    1         0.5411619718E+00      0.5414481293E+00
          0                 3           2            50    3     1      -0.7544850813E-02      55    5    1         0.1566239467E-02      0.2238259818E-02
          0                 4           2            50    3     1       0.5957655202E-03      55    5    1        -0.1352195245E-03      0.1872319395E-03
          0                 5           1            50    3     1      -0.4137637970E-04      55    5    1         0.1059791003E-04      0.1403014145E-04
          0                 6           1            50    3     1       0.2479718163E-05      55    5    1        -0.7274762892E-06      0.9186239117E-06
          0                 7           1            50    3     1      -0.1251594028E-06      55    5    1         0.4304347156E-07      0.5174407433E-07

    ------------------------------------------------
       NWT REQUIRED            7 OUTER ITERATIONS 
       AND A TOTAL OF         11 INNER ITERATIONS.
    ------------------------------------------------

 NO OUTPUT CONTROL FOR STRESS PERIOD   13   TIME STEP   10
 
 WELLS WITH REDUCED PUMPING FOR STRESS PERIOD    13 TIME STEP    10
   LAY   ROW   COL         APPL.Q          ACT.Q        GW-HEAD       CELL-BOT
     1     5    55  -0.121003E+01  -0.106579E+01   0.870907E-03   0.000000E+00
 
 
 SOLVING FOR HEAD 
                                                   Max.-Head-Change                         Max.-Flux-Residual
  Residual-Control   Outer-Iter.   Inner-Iter.     Column Row Layer    Maximum-Head-Change  Column Row Layer    Maximum-Flux-Residual          L2-NORM 
          0                 1           2            50    3     1      -0.9186002533E+00      50    3    1        -0.8015285433E-01      0.1687767350E+00
          0                 2           2            50    3     1       0.8543903456E-01      50    3    1         0.7066785638E-02      0.1642771419E-01
          0                 3           2            50    3     1      -0.7601760915E-02      50    3    1        -0.6440644406E-03      0.1491166645E-02
          0                 4           2            50    3     1       0.5996876226E-03      50    3    1         0.5152599721E-04      0.1210965191E-03
          0                 5           1            50    3     1      -0.4161968567E-04      50    3    1        -0.3622621752E-05      0.8616792676E-05
          0                 6           1            50    3     1       0.2492970588E-05      50    3    1         0.2194861163E-06      0.5266455231E-06
          0                 7           1            50    3     1      -0.1257826237E-06      50    3    1        -0.1119013016E-07      0.2699526827E-07

    ------------------------------------------------
       NWT REQUIRED            7 OUTER ITERATIONS 
       AND A TOTAL OF         11 INNER ITERATIONS.
    ------------------------------------------------

 NO OUTPUT CONTROL FOR STRESS PERIOD   13   TIME STEP   11
 
 WELLS WITH REDUCED PUMPING FOR STRESS PERIOD    13 TIME STEP    11
   LAY   ROW   COL         APPL.Q          ACT.Q        GW-HEAD       CELL-BOT
     1     5    55  -0.120998E+01  -0.103496E+01   0.844115E-03   0.000000E+00
 
 
 SOLVING FOR HEAD 
                                                   Max.-Head-Change                         Max.-Flux-Residual
  Residual-Control   Outer-Iter.   Inner-Iter.     Column Row Layer    Maximum-Head-Change  Column Row Layer    Maximum-Flux-Residual          L2-NORM 
          0                 1           2            50    3     1      -0.9439342730E+00      50    3    1        -0.7403503577E-01      0.1596687066E+00
          0                 2           2            50    3     1       0.8720517883E-01      50    3    1         0.6397440820E-02      0.1547427043E-01
          0                 3           2            50    3     1      -0.7750817164E-02      50    3    1        -0.5841967091E-03      0.1409156288E-02
          0                 4           2            50    3     1       0.6107392640E-03      50    3    1         0.4672779221E-04      0.1147234728E-03
          0                 5           1            50    3     1      -0.4235007035E-04      50    3    1        -0.3285328890E-05      0.8183872731E-05
          0                 6           1            50    3     1       0.2534978908E-05      50    3    1         0.1990349487E-06      0.5011905741E-06
          0                 7           1            50    3     1      -0.1278400902E-06      50    3    1        -0.1014670636E-07      0.2572820147E-07

    ------------------------------------------------
       NWT REQUIRED            7 OUTER ITERATIONS 
       AND A TOTAL OF         11 INNER ITERATIONS.
    ------------------------------------------------

 NO OUTPUT CONTROL FOR STRESS PERIOD   13   TIME STEP   12
 
 WELLS WITH REDUCED PUMPING FOR STRESS PERIOD    13 TIME STEP    12
   LAY   ROW   COL         APPL.Q          ACT.Q        GW-HEAD       CELL-BOT
     1     5    55  -0.121001E+01  -0.100924E+01   0.823063E-03   0.000000E+00
 
 
 SOLVING FOR HEAD 
                                                   Max.-Head-Change                         Max.-Flux-Residual
  Residual-Control   Outer-Iter.   Inner-Iter.     Column Row Layer    Maximum-Head-Change  Column Row Layer    Maximum-Flux-Residual          L2-NORM 
          0                 1           2            50    3     1      -0.9806319963E+00      50    3    1        -0.6918330038E-01      0.1527774832E+00
          0                 2           2            50    3     1       0.8988168942E-01      50    3    1         0.5828039804E-02      0.1477004807E-01
          0                 3           2            50    3     1      -0.7979871564E-02      50    3    1        -0.5335178837E-03      0.1347990364E-02
          0                 4           2            50    3     1       0.6279819117E-03      50    3    1         0.4266411632E-04      0.1100383567E-03
          0                 5           1            50    3     1      -0.4350312947E-04      50    3    1        -0.2999681788E-05      0.7870757894E-05
          0                 6           1            50    3     1       0.2601889628E-05      50    3    1         0.1817091486E-06      0.4830771814E-06
          0                 7           1            50    3     1      -0.1311367307E-06      50    3    1        -0.9262462131E-08      0.2483921337E-07

    ------------------------------------------------
       NWT REQUIRED            7 OUTER ITERATIONS 
       AND A TOTAL OF         11 INNER ITERATIONS.
    ------------------------------------------------

 NO OUTPUT CONTROL FOR STRESS PERIOD   13   TIME STEP   13
 
 WELLS WITH REDUCED PUMPING FOR STRESS PERIOD    13 TIME STEP    13
   LAY   ROW   COL         APPL.Q          ACT.Q        GW-HEAD       CELL-BOT
     1     5    55  -0.121001E+01  -0.986573E+00   0.805328E-03   0.000000E+00
 
 
 SOLVING FOR HEAD 
                                                   Max.-Head-Change                         Max.-Flux-Residual
  Residual-Control   Outer-Iter.   Inner-Iter.     Column Row Layer    Maximum-Head-Change  Column Row Layer    Maximum-Flux-Residual          L2-NORM 
          0                 1           2            50    3     1       0.8385524465E+00      50    3    1        -0.6535035176E-01      0.1472875092E+00
          0                 2           2            50    3     1       0.7338835873E+00      50    3    1        -0.1084313433E+00      0.1156875364E+00
          0                 3           2            50    3     1       0.6754297947E+00      50    3    1        -0.8874577701E-01      0.9228369057E-01
          0                 4           2            50    3     1       0.6469276726E+00      50    3    1        -0.8290362496E-01      0.8639372349E-01
          0                 5           2            50    3     1       0.6326211011E+00      50    3    1        -0.7961241167E-01      0.8294674705E-01
          0                 6           2            50    3     1       0.6254720132E+00      50    3    1        -0.7799722553E-01      0.8126524349E-01
          0                 7           2            50    3     1       0.6218971792E+00      50    3    1        -0.7718741799E-01      0.8042141685E-01
          0                 8           2            50    3     1       0.6201097801E+00      50    3    1        -0.7678265479E-01      0.7999969992E-01
          0                 9           2            50    3     1       0.6192160796E+00      50    3    1        -0.7658026557E-01      0.7978883074E-01
          0                10           2            50    4     1       0.1193162729E+00      50    3    1         0.2399794678E+00      0.2410197924E+00
                                                   Max.-Head-Change                         Max.-Flux-Residual
  Residual-Control   Outer-Iter.   Inner-Iter.     Column Row Layer    Maximum-Head-Change  Column Row Layer    Maximum-Flux-Residual          L2-NORM 
          0                11           2            50    4     1      -0.1773978534E-02      50    3    1         0.2404340340E-01      0.2404596831E-01
          0                12           1            50    4     1       0.8691202451E-05      50    3    1        -0.4612560014E-03      0.4612590105E-03
          0                13           1            51    4     1       0.5390638736E-07      50    3    1         0.3773110068E-04      0.3773110200E-04

    ------------------------------------------------
       NWT REQUIRED           13 OUTER ITERATIONS 
       AND A TOTAL OF         24 INNER ITERATIONS.
    ------------------------------------------------

 NO OUTPUT CONTROL FOR STRESS PERIOD   13   TIME STEP   14
 
 WELLS WITH REDUCED PUMPING FOR STRESS PERIOD    13 TIME STEP    14
   LAY   ROW   COL         APPL.Q          ACT.Q        GW-HEAD       CELL-BOT
     1     3    50  -0.120998E+01  -0.114592E+01   0.963772E-03   0.000000E+00
     1     5    55  -0.120998E+01  -0.965860E+00   0.789689E-03   0.000000E+00
 
 
 SOLVING FOR HEAD 
                                                   Max.-Head-Change                         Max.-Flux-Residual
  Residual-Control   Outer-Iter.   Inner-Iter.     Column Row Layer    Maximum-Head-Change  Column Row Layer    Maximum-Flux-Residual          L2-NORM 
          0                 1           2            50    1     1      -0.4065832667E+00      50    2    1        -0.2768682517E-01      0.1264337927E+00
          0                 2           2            50    1     1       0.3933586484E-01      50    3    1         0.1797447088E-01      0.2163884293E-01
          0                 3           2            50    1     1      -0.3509374177E-02      50    3    1        -0.8743276736E-03      0.1409776423E-02
          0                 4           2            50    1     1       0.2780768548E-03      50    3    1         0.7266009633E-04      0.1165768470E-03
          0                 5           1            50    1     1      -0.1935117054E-04      50    3    1        -0.5090859362E-05      0.8320885143E-05
          0                 6           1            50    1     1       0.1160923082E-05      50    3    1         0.3084434237E-06      0.5106898129E-06
          0                 7           1            50    1     1      -0.5862355380E-07      50    3    1        -0.1572138109E-07      0.2626922376E-07

    ------------------------------------------------
       NWT REQUIRED            7 OUTER ITERATIONS 
       AND A TOTAL OF         11 INNER ITERATIONS.
    ------------------------------------------------

 NO OUTPUT CONTROL FOR STRESS PERIOD   13   TIME STEP   15
 
 WELLS WITH REDUCED PUMPING FOR STRESS PERIOD    13 TIME STEP    15
   LAY   ROW   COL         APPL.Q          ACT.Q        GW-HEAD       CELL-BOT
     1     3    50  -0.120999E+01  -0.108363E+01   0.895502E-03   0.000000E+00
     1     5    55  -0.120999E+01  -0.946463E+00   0.775425E-03   0.000000E+00
 
 
 SOLVING FOR HEAD 
                                                   Max.-Head-Change                         Max.-Flux-Residual
  Residual-Control   Outer-Iter.   Inner-Iter.     Column Row Layer    Maximum-Head-Change  Column Row Layer    Maximum-Flux-Residual          L2-NORM 
          0                 1           2            50    1     1      -0.3625910946E+00      50    1    1        -0.2228994905E-01      0.1153734040E+00
          0                 2           2            50    1     1       0.3507607791E-01      50    1    1         0.2167832614E-02      0.1141602887E-01
          0                 3           2            50    1     1      -0.3127366554E-02      50    1    1        -0.1956860634E-03      0.1044263736E-02
          0                 4           2            50    1     1       0.2476976017E-03      50    1    1         0.1566977897E-04      0.8646913860E-04
          0                 5           1            50    1     1      -0.1723057341E-04      50    1    1        -0.1101599883E-05      0.6269255008E-05
          0                 6           1            50    1     1       0.1033020998E-05      50    1    1         0.6670382047E-07      0.3890085996E-06
          0                 7           1            50    1     1      -0.5213747096E-07      50    1    1        -0.3399257209E-08      0.2016824980E-07

    ------------------------------------------------
       NWT REQUIRED            7 OUTER ITERATIONS 
       AND A TOTAL OF         11 INNER ITERATIONS.
    ------------------------------------------------

 NO OUTPUT CONTROL FOR STRESS PERIOD   13   TIME STEP   16
 
 WELLS WITH REDUCED PUMPING FOR STRESS PERIOD    13 TIME STEP    16
   LAY   ROW   COL         APPL.Q          ACT.Q        GW-HEAD       CELL-BOT
     1     3    50  -0.120999E+01  -0.105303E+01   0.867328E-03   0.000000E+00
     1     5    55  -0.120999E+01  -0.928119E+00   0.762248E-03   0.000000E+00
 
 
 SOLVING FOR HEAD 
                                                   Max.-Head-Change                         Max.-Flux-Residual
  Residual-Control   Outer-Iter.   Inner-Iter.     Column Row Layer    Maximum-Head-Change  Column Row Layer    Maximum-Flux-Residual          L2-NORM 
          0                 1           2            51    1     1      -0.3546330843E+00      50    1    1        -0.1807116527E-01      0.1089492196E+00
          0                 2           2            51    1     1       0.3439250909E-01      50    1    1         0.1759855285E-02      0.1068807784E-01
          0                 3           2            51    1     1      -0.3047565705E-02      50    1    1        -0.1588344979E-03      0.9842679341E-03
          0                 4           2            51    1     1       0.2405228362E-03      50    1    1         0.1271903061E-04      0.8189293452E-04
          0                 5           1            51    1     1      -0.1669095977E-04      50    1    1        -0.8941585098E-06      0.5968019390E-05
          0                 6           1            51    1     1       0.9992377659E-06      50    1    1         0.5413011139E-07      0.3718413774E-06

    ------------------------------------------------
       NWT REQUIRED            6 OUTER ITERATIONS 
       AND A TOTAL OF         10 INNER ITERATIONS.
    ------------------------------------------------

 NO OUTPUT CONTROL FOR STRESS PERIOD   13   TIME STEP   17
 
 WELLS WITH REDUCED PUMPING FOR STRESS PERIOD    13 TIME STEP    17
   LAY   ROW   COL         APPL.Q          ACT.Q        GW-HEAD       CELL-BOT
     1     3    50  -0.120999E+01  -0.102594E+01   0.844149E-03   0.000000E+00
     1     5    55  -0.120999E+01  -0.910648E+00   0.749950E-03   0.000000E+00
 
 
 SOLVING FOR HEAD 
                                                   Max.-Head-Change                         Max.-Flux-Residual
  Residual-Control   Outer-Iter.   Inner-Iter.     Column Row Layer    Maximum-Head-Change  Column Row Layer    Maximum-Flux-Residual          L2-NORM 
          0                 1           2            51    1     1      -0.3512264531E+00      51    1    1        -0.1606300327E-01      0.1036554508E+00
          0                 2           2            51    1     1       0.3397941376E-01      51    1    1         0.1581137013E-02      0.1013638219E-01
          0                 3           2            51    1     1      -0.3007477164E-02      51    1    1        -0.1425729670E-03      0.9368918346E-03
          0                 4           2            51    1     1       0.2371163984E-03      51    1    1         0.1141775671E-04      0.7831452102E-04
          0                 5           1            51    1     1      -0.1644168057E-04      51    1    1        -0.8026727714E-06      0.5736281168E-05
          0                 6           1            51    1     1       0.9835201615E-06      51    1    1         0.4863872038E-07      0.3588849516E-06

    ------------------------------------------------
       NWT REQUIRED            6 OUTER ITERATIONS 
       AND A TOTAL OF         10 INNER ITERATIONS.
    ------------------------------------------------

 NO OUTPUT CONTROL FOR STRESS PERIOD   13   TIME STEP   18
 
 WELLS WITH REDUCED PUMPING FOR STRESS PERIOD    13 TIME STEP    18
   LAY   ROW   COL         APPL.Q          ACT.Q        GW-HEAD       CELL-BOT
     1     3    50  -0.121001E+01  -0.100104E+01   0.823925E-03   0.000000E+00
     1     5    55  -0.121001E+01  -0.893389E+00   0.737998E-03   0.000000E+00
 
 
 SOLVING FOR HEAD 
                                                   Max.-Head-Change                         Max.-Flux-Residual
  Residual-Control   Outer-Iter.   Inner-Iter.     Column Row Layer    Maximum-Head-Change  Column Row Layer    Maximum-Flux-Residual          L2-NORM 
          0                 1           3            51    1     1      -0.3469456436E+00      51    1    1        -0.1446575048E-01      0.9902033679E-01
          0                 2           2            51    1     1       0.3349071133E-01      51    1    1         0.1422029662E-02      0.9658772090E-02
          0                 3           2            51    1     1      -0.2959958845E-02      51    1    1        -0.1282461519E-03      0.8959535902E-03
          0                 4           2            51    1     1       0.2330887707E-03      51    1    1         0.1027022623E-04      0.7528963551E-04
          0                 5           1            51    1     1      -0.1614729410E-04      51    1    1        -0.7220022288E-06      0.5545601240E-05
          0                 6           1            51    1     1       0.9649243095E-06      52    4    1        -0.4387188612E-07      0.3484472725E-06

    ------------------------------------------------
       NWT REQUIRED            6 OUTER ITERATIONS 
       AND A TOTAL OF         11 INNER ITERATIONS.
    ------------------------------------------------

 NO OUTPUT CONTROL FOR STRESS PERIOD   13   TIME STEP   19
 
 WELLS WITH REDUCED PUMPING FOR STRESS PERIOD    13 TIME STEP    19
   LAY   ROW   COL         APPL.Q          ACT.Q        GW-HEAD       CELL-BOT
     1     3    50  -0.121000E+01  -0.978002E+00   0.805994E-03   0.000000E+00
     1     5    55  -0.121000E+01  -0.876364E+00   0.726407E-03   0.000000E+00
 
 
 SOLVING FOR HEAD 
                                                   Max.-Head-Change                         Max.-Flux-Residual
  Residual-Control   Outer-Iter.   Inner-Iter.     Column Row Layer    Maximum-Head-Change  Column Row Layer    Maximum-Flux-Residual          L2-NORM 
          0                 1           3            51    1     1      -0.3429682615E+00      51    1    1        -0.1299305949E-01      0.9490367283E-01
          0                 2           2            51    1     1       0.3304646476E-01      51    1    1         0.1276589851E-02      0.9247929888E-02
          0                 3           2            51    1     1      -0.2916264066E-02      51    1    1        -0.1151387637E-03      0.8603652315E-03
          0                 4           2            51    1     1       0.2293432524E-03      51    1    1         0.9220459268E-05      0.7260350181E-04
          0                 5           1            51    1     1      -0.1587001968E-04      52    4    1         0.6711633089E-06      0.5373666534E-05
          0                 6           1            51    1     1       0.9470522303E-06      52    4    1        -0.4452069979E-07      0.3389632747E-06

    ------------------------------------------------
       NWT REQUIRED            6 OUTER ITERATIONS 
       AND A TOTAL OF         11 INNER ITERATIONS.
    ------------------------------------------------

 NO OUTPUT CONTROL FOR STRESS PERIOD   13   TIME STEP   20
 
 WELLS WITH REDUCED PUMPING FOR STRESS PERIOD    13 TIME STEP    20
   LAY   ROW   COL         APPL.Q          ACT.Q        GW-HEAD       CELL-BOT
     1     3    50  -0.120999E+01  -0.955923E+00   0.789382E-03   0.000000E+00
     1     5    55  -0.120999E+01  -0.859519E+00   0.715102E-03   0.000000E+00
 
 
 SOLVING FOR HEAD 
                                                   Max.-Head-Change                         Max.-Flux-Residual
  Residual-Control   Outer-Iter.   Inner-Iter.     Column Row Layer    Maximum-Head-Change  Column Row Layer    Maximum-Flux-Residual          L2-NORM 
          0                 1           3            52    1     1      -0.3538542684E+00      51    1    1        -0.1167838603E-01      0.9114482874E-01
          0                 2           2            52    1     1       0.3395965757E-01      51    1    1         0.1147396568E-02      0.8874319459E-02
          0                 3           2            52    1     1      -0.2973505005E-02      51    1    1        -0.1034899699E-03      0.8275225467E-03
          0                 4           2            52    1     1       0.2327292940E-03      51    1    1         0.8287554656E-05      0.7017275855E-04
          0                 5           1            52    1     1      -0.1605553851E-04      52    4    1         0.6555416470E-06      0.5221954116E-05
          0                 6           1            52    1     1       0.9529938767E-06      52    4    1        -0.4422578714E-07      0.3306725739E-06

    ------------------------------------------------
       NWT REQUIRED            6 OUTER ITERATIONS 
       AND A TOTAL OF         11 INNER ITERATIONS.
    ------------------------------------------------

 NO OUTPUT CONTROL FOR STRESS PERIOD   13   TIME STEP   21
 
 WELLS WITH REDUCED PUMPING FOR STRESS PERIOD    13 TIME STEP    21
   LAY   ROW   COL         APPL.Q          ACT.Q        GW-HEAD       CELL-BOT
     1     3    50  -0.121000E+01  -0.934507E+00   0.773706E-03   0.000000E+00
     1     5    55  -0.121000E+01  -0.842821E+00   0.704026E-03   0.000000E+00
 
 
 SOLVING FOR HEAD 
                                                   Max.-Head-Change                         Max.-Flux-Residual
  Residual-Control   Outer-Iter.   Inner-Iter.     Column Row Layer    Maximum-Head-Change  Column Row Layer    Maximum-Flux-Residual          L2-NORM 
          0                 1           3            52    1     1      -0.3683343242E+00      52    1    1        -0.1095722633E-01      0.8764636543E-01
          0                 2           2            52    1     1       0.3524753943E-01      52    1    1         0.1087095199E-02      0.8528463822E-02
          0                 3           2            52    1     1      -0.3080777144E-02      52    1    1        -0.9797758317E-04      0.7971353897E-03
          0                 4           2            52    1     1       0.2407231566E-03      52    1    1         0.7846525016E-05      0.6785496917E-04
          0                 5           1            52    1     1      -0.1657984823E-04      52    4    1         0.6440218633E-06      0.5073955527E-05
          0                 6           1            52    1     1       0.9806248166E-06      52    4    1        -0.4391096842E-07      0.3224344450E-06

    ------------------------------------------------
       NWT REQUIRED            6 OUTER ITERATIONS 
       AND A TOTAL OF         11 INNER ITERATIONS.
    ------------------------------------------------

 NO OUTPUT CONTROL FOR STRESS PERIOD   13   TIME STEP   22
 
 WELLS WITH REDUCED PUMPING FOR STRESS PERIOD    13 TIME STEP    22
   LAY   ROW   COL         APPL.Q          ACT.Q        GW-HEAD       CELL-BOT
     1     3    50  -0.120999E+01  -0.913683E+00   0.758842E-03   0.000000E+00
     1     5    55  -0.120999E+01  -0.826139E+00   0.693095E-03   0.000000E+00
 
 
 SOLVING FOR HEAD 
                                                   Max.-Head-Change                         Max.-Flux-Residual
  Residual-Control   Outer-Iter.   Inner-Iter.     Column Row Layer    Maximum-Head-Change  Column Row Layer    Maximum-Flux-Residual          L2-NORM 
          0                 1           3            52    7     1      -0.3812093622E+00      52    1    1        -0.1037147366E-01      0.8434705227E-01
          0                 2           2            52    7     1       0.3639671188E-01      52    1    1         0.1027257294E-02      0.8202170019E-02
          0                 3           2            52    7     1      -0.3173206236E-02      52    1    1        -0.9260519544E-04      0.7681334747E-03
          0                 4           2            52    1     1       0.2473749696E-03      52    1    1         0.7416021969E-05      0.6563560094E-04
          0                 5           1            52    1     1      -0.1700758837E-04      52    4    1         0.6262798423E-06      0.4931684264E-05
          0                 6           1            52    1     1       0.1001388481E-05      52    4    1        -0.4311145896E-07      0.3143436145E-06
          0                 7           1            52    1     1      -0.4991202026E-07      52    4    1         0.2341602023E-08      0.1668761462E-07

    ------------------------------------------------
       NWT REQUIRED            7 OUTER ITERATIONS 
       AND A TOTAL OF         12 INNER ITERATIONS.
    ------------------------------------------------

 NO OUTPUT CONTROL FOR STRESS PERIOD   13   TIME STEP   23
 
 WELLS WITH REDUCED PUMPING FOR STRESS PERIOD    13 TIME STEP    23
   LAY   ROW   COL         APPL.Q          ACT.Q        GW-HEAD       CELL-BOT
     1     3    50  -0.121000E+01  -0.893369E+00   0.744636E-03   0.000000E+00
     1     5    55  -0.121000E+01  -0.809406E+00   0.682236E-03   0.000000E+00
 
 
 SOLVING FOR HEAD 
                                                   Max.-Head-Change                         Max.-Flux-Residual
  Residual-Control   Outer-Iter.   Inner-Iter.     Column Row Layer    Maximum-Head-Change  Column Row Layer    Maximum-Flux-Residual          L2-NORM 
          0                 1           3            52    7     1      -0.3945315785E+00      52    7    1        -0.9760131361E-02      0.8121888276E-01
          0                 2           2            52    7     1       0.3752471315E-01      52    7    1         0.9672856076E-03      0.7893042839E-02
          0                 3           2            52    7     1      -0.3266992257E-02      52    7    1        -0.8719981298E-04      0.7408447103E-03
          0                 4           2            52    7     1       0.2542413641E-03      52    7    1         0.6983051529E-05      0.6356612814E-04
          0                 5           1            52    7     1      -0.1744058403E-04      52    4    1         0.6031628745E-06      0.4800312791E-05
          0                 6           1            52    7     1       0.1021325717E-05      52    4    1        -0.4187996594E-07      0.3066987290E-06
          0                 7           1            52    7     1      -0.5071858241E-07      52    4    1         0.2289239132E-08      0.1632623415E-07

    ------------------------------------------------
       NWT REQUIRED            7 OUTER ITERATIONS 
       AND A TOTAL OF         12 INNER ITERATIONS.
    ------------------------------------------------

 NO OUTPUT CONTROL FOR STRESS PERIOD   13   TIME STEP   24
 
 WELLS WITH REDUCED PUMPING FOR STRESS PERIOD    13 TIME STEP    24
   LAY   ROW   COL         APPL.Q          ACT.Q        GW-HEAD       CELL-BOT
     1     3    50  -0.120999E+01  -0.873628E+00   0.731090E-03   0.000000E+00
     1     5    55  -0.120999E+01  -0.792652E+00   0.671475E-03   0.000000E+00
 
 
 SOLVING FOR HEAD 
                                                   Max.-Head-Change                         Max.-Flux-Residual
  Residual-Control   Outer-Iter.   Inner-Iter.     Column Row Layer    Maximum-Head-Change  Column Row Layer    Maximum-Flux-Residual          L2-NORM 
          0                 1           3            52    7     1      -0.4049750727E+00      52    7    1        -0.9186205385E-02      0.7829126963E-01
          0                 2           2            52    7     1       0.3835495798E-01      52    7    1         0.9088469161E-03      0.7603579651E-02
          0                 3           2            52    7     1      -0.3330559082E-02      52    7    1        -0.8195090753E-04      0.7156703514E-03
          0                 4           2            52    7     1       0.2586185798E-03      52    7    1         0.6562398416E-05      0.6168252908E-04
          0                 5           1            52    7     1      -0.1770686145E-04      52    4    1         0.5666788936E-06      0.4680536933E-05
          0                 6           1            52    7     1       0.1030077023E-05      52    4    1        -0.3966319673E-07      0.2993069494E-06
          0                 7           1            52    7     1      -0.5093432673E-07      52    4    1         0.2182512060E-08      0.1595709534E-07

    ------------------------------------------------
       NWT REQUIRED            7 OUTER ITERATIONS 
       AND A TOTAL OF         12 INNER ITERATIONS.
    ------------------------------------------------

 NO OUTPUT CONTROL FOR STRESS PERIOD   13   TIME STEP   25
 
 WELLS WITH REDUCED PUMPING FOR STRESS PERIOD    13 TIME STEP    25
   LAY   ROW   COL         APPL.Q          ACT.Q        GW-HEAD       CELL-BOT
     1     3    50  -0.121000E+01  -0.854198E+00   0.717966E-03   0.000000E+00
     1     5    55  -0.121000E+01  -0.775840E+00   0.660762E-03   0.000000E+00
 
 
 SOLVING FOR HEAD 
                                                   Max.-Head-Change                         Max.-Flux-Residual
  Residual-Control   Outer-Iter.   Inner-Iter.     Column Row Layer    Maximum-Head-Change  Column Row Layer    Maximum-Flux-Residual          L2-NORM 
          0                 1           3            52    7     1      -0.4124644043E+00      52    7    1        -0.8575455240E-02      0.7551527236E-01
          0                 2           3            52    7     1       0.3892207546E-01      52    7    1         0.8470277175E-03      0.7332362304E-02
          0                 3           2            52    7     1      -0.3376566617E-02      52    7    1        -0.7640055899E-04      0.6907989591E-03
          0                 4           2            52    7     1       0.2617881070E-03      52    7    1         0.6117604016E-05      0.5970479565E-04
          0                 5           1            52    7     1      -0.1788638957E-04      53    4    1         0.5386674523E-06      0.4550215622E-05
          0                 6           1            52    7     1       0.1031219471E-05      52    4    1        -0.3752253941E-07      0.2910710743E-06
          0                 7           1            52    7     1      -0.5068187391E-07      52    4    1         0.2080731698E-08      0.1554853369E-07

    ------------------------------------------------
       NWT REQUIRED            7 OUTER ITERATIONS 
       AND A TOTAL OF         13 INNER ITERATIONS.
    ------------------------------------------------

 NO OUTPUT CONTROL FOR STRESS PERIOD   13   TIME STEP   26
 
 WELLS WITH REDUCED PUMPING FOR STRESS PERIOD    13 TIME STEP    26
   LAY   ROW   COL         APPL.Q          ACT.Q        GW-HEAD       CELL-BOT
     1     3    50  -0.120999E+01  -0.835149E+00   0.705283E-03   0.000000E+00
     1     5    55  -0.120999E+01  -0.759077E+00   0.650164E-03   0.000000E+00
 
 
 SOLVING FOR HEAD 
                                                   Max.-Head-Change                         Max.-Flux-Residual
  Residual-Control   Outer-Iter.   Inner-Iter.     Column Row Layer    Maximum-Head-Change  Column Row Layer    Maximum-Flux-Residual          L2-NORM 
          0                 1           3            52    7     1      -0.4169500064E+00      52    7    1        -0.7942740443E-02      0.7285504430E-01
          0                 2           3            52    7     1       0.3912401032E-01      52    7    1         0.7833077069E-03      0.7075260714E-02
          0                 3           2            52    7     1      -0.3384682030E-02      52    7    1        -0.7067310363E-04      0.6679525895E-03
          0                 4           2            52    7     1       0.2618788779E-03      53    4    1        -0.6986199003E-05      0.5792556462E-04
          0                 5           1            52    7     1      -0.1785993282E-04      53    4    1         0.5976559038E-06      0.4432046027E-05
          0                 6           1            52    7     1       0.1019589211E-05      53    4    1        -0.3863559306E-07      0.2830274529E-06
          0                 7           1            53    1     1      -0.5012823819E-07      53    4    1         0.2012993217E-08      0.1512839976E-07

    ------------------------------------------------
       NWT REQUIRED            7 OUTER ITERATIONS 
       AND A TOTAL OF         13 INNER ITERATIONS.
    ------------------------------------------------

 NO OUTPUT CONTROL FOR STRESS PERIOD   13   TIME STEP   27
 
 WELLS WITH REDUCED PUMPING FOR STRESS PERIOD    13 TIME STEP    27
   LAY   ROW   COL         APPL.Q          ACT.Q        GW-HEAD       CELL-BOT
     1     3    50  -0.121000E+01  -0.816493E+00   0.693009E-03   0.000000E+00
     1     5    55  -0.121000E+01  -0.742482E+00   0.639737E-03   0.000000E+00
 
 
 SOLVING FOR HEAD 
                                                   Max.-Head-Change                         Max.-Flux-Residual
  Residual-Control   Outer-Iter.   Inner-Iter.     Column Row Layer    Maximum-Head-Change  Column Row Layer    Maximum-Flux-Residual          L2-NORM 
          0                 1           3            52    7     1      -0.4184100262E+00      52    7    1        -0.7302942409E-02      0.7032498470E-01
          0                 2           3            52    7     1       0.3902018206E-01      52    7    1         0.7191108313E-03      0.6830537879E-02
          0                 3           2            52    7     1      -0.3370566130E-02      52    7    1        -0.6489957049E-04      0.6458830360E-03
          0                 4           2            52    7     1       0.2603540898E-03      53    4    1        -0.6477517167E-05      0.5619020359E-04
          0                 5           1            52    7     1      -0.1771868746E-04      53    4    1         0.5575939986E-06      0.4317039004E-05
          0                 6           1            53    1     1       0.1000073338E-05      53    4    1        -0.3588749642E-07      0.2748569757E-06
          0                 7           1            53    1     1      -0.4924004486E-07      52    4    1         0.1876541256E-08      0.1469171045E-07

    ------------------------------------------------
       NWT REQUIRED            7 OUTER ITERATIONS 
       AND A TOTAL OF         13 INNER ITERATIONS.
    ------------------------------------------------

 NO OUTPUT CONTROL FOR STRESS PERIOD   13   TIME STEP   28
 
 WELLS WITH REDUCED PUMPING FOR STRESS PERIOD    13 TIME STEP    28
   LAY   ROW   COL         APPL.Q          ACT.Q        GW-HEAD       CELL-BOT
     1     3    50  -0.121000E+01  -0.798236E+00   0.681131E-03   0.000000E+00
     1     5    55  -0.121000E+01  -0.725879E+00   0.629371E-03   0.000000E+00
 
 
 SOLVING FOR HEAD 
                                                   Max.-Head-Change                         Max.-Flux-Residual
  Residual-Control   Outer-Iter.   Inner-Iter.     Column Row Layer    Maximum-Head-Change  Column Row Layer    Maximum-Flux-Residual          L2-NORM 
          0                 1           3            52    7     1      -0.4168701584E+00      52    7    1        -0.6666069943E-02      0.6793137121E-01
          0                 2           3            52    7     1       0.3870274173E-01      52    7    1         0.6554500909E-03      0.6597832747E-02
          0                 3           2            52    7     1      -0.3318472896E-02      52    7    1        -0.5916804966E-04      0.6246357319E-03
          0                 4           2            52    7     1       0.2551070282E-03      52    4    1        -0.6108139139E-05      0.5446836665E-04
          0                 5           1            52    7     1      -0.1730432765E-04      52    4    1         0.5300727218E-06      0.4198079049E-05
          0                 6           1            53    1     1       0.9750289337E-06      52    4    1        -0.3598173803E-07      0.2657283330E-06

    ------------------------------------------------
       NWT REQUIRED            6 OUTER ITERATIONS 
       AND A TOTAL OF         12 INNER ITERATIONS.
    ------------------------------------------------

 NO OUTPUT CONTROL FOR STRESS PERIOD   13   TIME STEP   29
 
 WELLS WITH REDUCED PUMPING FOR STRESS PERIOD    13 TIME STEP    29
   LAY   ROW   COL         APPL.Q          ACT.Q        GW-HEAD       CELL-BOT
     1     3    50  -0.121000E+01  -0.780402E+00   0.669637E-03   0.000000E+00
     1     5    55  -0.121000E+01  -0.709371E+00   0.619115E-03   0.000000E+00
 
 
 SOLVING FOR HEAD 
                                                   Max.-Head-Change                         Max.-Flux-Residual
  Residual-Control   Outer-Iter.   Inner-Iter.     Column Row Layer    Maximum-Head-Change  Column Row Layer    Maximum-Flux-Residual          L2-NORM 
          0                 1           3            52    7     1      -0.4124822011E+00      52    7    1        -0.6039949038E-02      0.6568373370E-01
          0                 2           3            52    7     1       0.3814168135E-01      52    7    1         0.5931537993E-03      0.6377423372E-02
          0                 3           2            52    7     1      -0.3263387842E-02      52    7    1        -0.5355489505E-04      0.6033993088E-03
          0                 4           2            52    7     1       0.2502503893E-03      52    4    1        -0.5582403716E-05      0.5266587821E-04
          0                 5           1            52    7     1      -0.1691659729E-04      52    4    1         0.4885757680E-06      0.4070379797E-05
          0                 6           1            53    1     1       0.9421124066E-06      52    4    1        -0.3340766441E-07      0.2555801403E-06

    ------------------------------------------------
       NWT REQUIRED            6 OUTER ITERATIONS 
       AND A TOTAL OF         12 INNER ITERATIONS.
    ------------------------------------------------

 NO OUTPUT CONTROL FOR STRESS PERIOD   13   TIME STEP   30
 
 WELLS WITH REDUCED PUMPING FOR STRESS PERIOD    13 TIME STEP    30
   LAY   ROW   COL         APPL.Q          ACT.Q        GW-HEAD       CELL-BOT
     1     3    50  -0.121000E+01  -0.763048E+00   0.658544E-03   0.000000E+00
     1     5    55  -0.121000E+01  -0.693053E+00   0.609020E-03   0.000000E+00
 



 STREAM LISTING     PERIOD     13   STEP       30

 LAYER ROW COL. STREAM  RCH.   FLOW INTO    STREAM     FLOW OUT OF   OVRLND.    DIRECT     STREAM      STREAM      STREAM     STREAM  STREAMBED   FLOW TO   CHNG. UNSAT. 
                SEG.NO.  NO.   STRM. RCH.    LOSS       STRM. RCH.   RUNOFF     PRECIP       ET         HEAD        DEPTH      WIDTH  CONDCTNC.   WAT. TAB.

   1    4    1     1     1    1.2680E+00  6.7374E-04   1.2673E+00  0.000E+00  0.000E+00  0.000E+00  1.40683E+02  8.330E-01  2.809E+00  5.054E-04  6.951E-04 -2.132E-05
   1    4    2     1     2    1.2673E+00  6.7353E-04   1.2667E+00  0.000E+00  0.000E+00  0.000E+00  1.40383E+02  8.328E-01  2.809E+00  5.054E-04  6.945E-04 -2.095E-05
   1    4    3     1     3    1.2667E+00  6.7332E-04   1.2660E+00  0.000E+00  0.000E+00  0.000E+00  1.40083E+02  8.325E-01  2.809E+00  5.053E-04  6.937E-04 -2.037E-05
   1    4    4     1     4    1.2660E+00  6.7311E-04   1.2653E+00  0.000E+00  0.000E+00  0.000E+00  1.39782E+02  8.323E-01  2.808E+00  5.052E-04  6.927E-04 -1.956E-05
   1    4    5     1     5    1.2653E+00  6.7290E-04   1.2646E+00  0.000E+00  0.000E+00  0.000E+00  1.39482E+02  8.321E-01  2.808E+00  5.051E-04  6.914E-04 -1.854E-05
   1    4    6     1     6    1.2646E+00  6.7270E-04   1.2640E+00  0.000E+00  0.000E+00  0.000E+00  1.39182E+02  8.319E-01  2.808E+00  5.051E-04  6.900E-04 -1.730E-05
   1    4    7     1     7    1.2640E+00  6.7249E-04   1.2633E+00  0.000E+00  0.000E+00  0.000E+00  1.38882E+02  8.316E-01  2.808E+00  5.050E-04  6.883E-04 -1.584E-05
   1    4    8     1     8    1.2633E+00  6.7228E-04   1.2626E+00  0.000E+00  0.000E+00  0.000E+00  1.38581E+02  8.314E-01  2.807E+00  5.049E-04  6.865E-04 -1.418E-05
   1    4    9     1     9    1.2626E+00  6.7207E-04   1.2619E+00  0.000E+00  0.000E+00  0.000E+00  1.38281E+02  8.312E-01  2.807E+00  5.049E-04  6.844E-04 -1.231E-05
   1    4   10     1    10    1.2619E+00  6.7186E-04   1.2613E+00  0.000E+00  0.000E+00  0.000E+00  1.37981E+02  8.310E-01  2.807E+00  5.048E-04  6.821E-04 -1.024E-05
   1    4   11     1    11    1.2613E+00  6.7166E-04   1.2606E+00  0.000E+00  0.000E+00  0.000E+00  1.37681E+02  8.308E-01  2.806E+00  5.047E-04  6.796E-04 -7.975E-06
   1    4   12     1    12    1.2606E+00  6.7145E-04   1.2599E+00  0.000E+00  0.000E+00  0.000E+00  1.37381E+02  8.305E-01  2.806E+00  5.046E-04  6.770E-04 -5.529E-06
   1    4   13     1    13    1.2599E+00  6.7124E-04   1.2593E+00  0.000E+00  0.000E+00  0.000E+00  1.37080E+02  8.303E-01  2.806E+00  5.046E-04  6.742E-04 -2.908E-06
   1    4   14     1    14    1.2593E+00  6.7103E-04   1.2586E+00  0.000E+00  0.000E+00  0.000E+00  1.36780E+02  8.301E-01  2.806E+00  5.045E-04  6.712E-04 -1.240E-07
   1    4   15     1    15    1.2586E+00  6.7083E-04   1.2579E+00  0.000E+00  0.000E+00  0.000E+00  1.36480E+02  8.299E-01  2.805E+00  5.044E-04  6.680E-04  2.811E-06
   1    4   16     1    16    1.2579E+00  6.7062E-04   1.2572E+00  0.000E+00  0.000E+00  0.000E+00  1.36180E+02  8.297E-01  2.805E+00  5.044E-04  6.647E-04  5.884E-06
   1    4   17     1    17    1.2572E+00  6.7041E-04   1.2566E+00  0.000E+00  0.000E+00  0.000E+00  1.35879E+02  8.294E-01  2.805E+00  5.043E-04  6.613E-04  9.079E-06
   1    4   18     1    18    1.2566E+00  6.7021E-04   1.2559E+00  0.000E+00  0.000E+00  0.000E+00  1.35579E+02  8.292E-01  2.805E+00  5.042E-04  6.578E-04  1.238E-05
   1    4   19     1    19    1.2559E+00  6.7000E-04   1.2552E+00  0.000E+00  0.000E+00  0.000E+00  1.35279E+02  8.290E-01  2.804E+00  5.041E-04  6.542E-04  1.577E-05
   1    4   20     1    20    1.2552E+00  6.6979E-04   1.2546E+00  0.000E+00  0.000E+00  0.000E+00  1.34979E+02  8.288E-01  2.804E+00  5.041E-04  6.506E-04  1.922E-05
   1    4   21     1    21    1.2546E+00  6.6958E-04   1.2539E+00  0.000E+00  0.000E+00  0.000E+00  1.34679E+02  8.286E-01  2.804E+00  5.040E-04  6.469E-04  2.272E-05
   1    4   22     1    22    1.2539E+00  6.6938E-04   1.2532E+00  0.000E+00  0.000E+00  0.000E+00  1.34378E+02  8.283E-01  2.804E+00  5.039E-04  6.431E-04  2.624E-05
   1    4   23     1    23    1.2532E+00  6.6917E-04   1.2526E+00  0.000E+00  0.000E+00  0.000E+00  1.34078E+02  8.281E-01  2.803E+00  5.039E-04  6.394E-04  2.976E-05
   1    4   24     1    24    1.2526E+00  6.6896E-04   1.2519E+00  0.000E+00  0.000E+00  0.000E+00  1.33778E+02  8.279E-01  2.803E+00  5.038E-04  6.357E-04  3.326E-05
   1    4   25     1    25    1.2519E+00  6.6876E-04   1.2512E+00  0.000E+00  0.000E+00  0.000E+00  1.33478E+02  8.277E-01  2.803E+00  5.037E-04  6.320E-04  3.671E-05
   1    4   26     1    26    1.2512E+00  6.6855E-04   1.2506E+00  0.000E+00  0.000E+00  0.000E+00  1.33177E+02  8.274E-01  2.802E+00  5.036E-04  6.285E-04  4.010E-05
   1    4   27     1    27    1.2506E+00  6.6834E-04   1.2499E+00  0.000E+00  0.000E+00  0.000E+00  1.32877E+02  8.272E-01  2.802E+00  5.036E-04  6.366E-04  3.170E-05
   1    4   28     1    28    1.2499E+00  6.6814E-04   1.2492E+00  0.000E+00  0.000E+00  0.000E+00  1.32577E+02  8.270E-01  2.802E+00  5.035E-04  6.474E-04  2.076E-05
   1    4   29     1    29    1.2492E+00  6.6793E-04   1.2485E+00  0.000E+00  0.000E+00  0.000E+00  1.32277E+02  8.268E-01  2.802E+00  5.034E-04  7.140E-04 -4.607E-05
   1    4   30     1    30    1.2485E+00  6.6772E-04   1.2479E+00  0.000E+00  0.000E+00  0.000E+00  1.31977E+02  8.266E-01  2.801E+00  5.033E-04  7.177E-04 -5.000E-05
   1    4   31     1    31    1.2479E+00  6.6752E-04   1.2472E+00  0.000E+00  0.000E+00  0.000E+00  1.31676E+02  8.263E-01  2.801E+00  5.033E-04  7.142E-04 -4.669E-05
   1    4   32     1    32    1.2472E+00  6.6731E-04   1.2465E+00  0.000E+00  0.000E+00  0.000E+00  1.31376E+02  8.261E-01  2.801E+00  5.032E-04  7.107E-04 -4.341E-05
   1    4   33     1    33    1.2465E+00  6.6710E-04   1.2459E+00  0.000E+00  0.000E+00  0.000E+00  1.31076E+02  8.259E-01  2.801E+00  5.031E-04  7.072E-04 -4.008E-05
   1    4   34     1    34    1.2459E+00  6.6690E-04   1.2452E+00  0.000E+00  0.000E+00  0.000E+00  1.30776E+02  8.257E-01  2.800E+00  5.031E-04  7.036E-04 -3.666E-05
   1    4   35     1    35    1.2452E+00  6.6669E-04   1.2445E+00  0.000E+00  0.000E+00  0.000E+00  1.30475E+02  8.255E-01  2.800E+00  5.030E-04  7.032E-04 -3.651E-05
   1    4   36     1    36    1.2445E+00  6.6648E-04   1.2439E+00  0.000E+00  0.000E+00  0.000E+00  1.30175E+02  8.252E-01  2.800E+00  5.029E-04  7.149E-04 -4.842E-05
   1    4   37     1    37    1.2439E+00  6.6628E-04   1.2432E+00  0.000E+00  0.000E+00  0.000E+00  1.29875E+02  8.250E-01  2.800E+00  5.028E-04  7.421E-04 -7.579E-05
   1    4   38     1    38    1.2432E+00  6.6607E-04   1.2425E+00  0.000E+00  0.000E+00  0.000E+00  1.29575E+02  8.248E-01  2.799E+00  5.028E-04  7.751E-04 -1.091E-04
   1    4   39     1    39    1.2425E+00  6.6586E-04   1.2419E+00  0.000E+00  0.000E+00  0.000E+00  1.29275E+02  8.246E-01  2.799E+00  5.027E-04  8.130E-04 -1.471E-04
   1    4   40     1    40    1.2419E+00  6.6566E-04   1.2412E+00  0.000E+00  0.000E+00  0.000E+00  1.28974E+02  8.244E-01  2.799E+00  5.026E-04  8.528E-04 -1.871E-04
   1    4   41     1    41    1.2412E+00  6.6545E-04   1.2405E+00  0.000E+00  0.000E+00  0.000E+00  1.28674E+02  8.241E-01  2.799E+00  5.026E-04  9.297E-04 -2.643E-04
   1    4   42     1    42    1.2405E+00  6.6525E-04   1.2399E+00  0.000E+00  0.000E+00  0.000E+00  1.28374E+02  8.239E-01  2.798E+00  5.025E-04  9.978E-04 -3.326E-04
   1    4   43     1    43    1.2399E+00  6.6504E-04   1.2392E+00  0.000E+00  0.000E+00  0.000E+00  1.28074E+02  8.237E-01  2.798E+00  5.024E-04  9.953E-04 -3.303E-04
   1    4   44     1    44    1.2392E+00  6.6483E-04   1.2386E+00  0.000E+00  0.000E+00  0.000E+00  1.27773E+02  8.235E-01  2.798E+00  5.023E-04  9.824E-04 -3.177E-04
   1    4   45     1    45    1.2386E+00  6.6463E-04   1.2379E+00  0.000E+00  0.000E+00  0.000E+00  1.27473E+02  8.233E-01  2.797E+00  5.023E-04  9.704E-04 -3.058E-04
   1    4   46     1    46    1.2379E+00  6.6442E-04   1.2372E+00  0.000E+00  0.000E+00  0.000E+00  1.27173E+02  8.230E-01  2.797E+00  5.022E-04  9.848E-04 -3.204E-04
   1    4   47     1    47    1.2372E+00  6.6422E-04   1.2366E+00  0.000E+00  0.000E+00  0.000E+00  1.26873E+02  8.228E-01  2.797E+00  5.021E-04  1.073E-03 -4.089E-04
   1    4   48     1    48    1.2366E+00  6.6401E-04   1.2359E+00  0.000E+00  0.000E+00  0.000E+00  1.26573E+02  8.226E-01  2.797E+00  5.021E-04  1.144E-03 -4.796E-04
   1    4   49     1    49    1.2359E+00  6.6380E-04   1.2352E+00  0.000E+00  0.000E+00  0.000E+00  1.26272E+02  8.224E-01  2.796E+00  5.020E-04  1.180E-03 -5.162E-04
   1    4   50     1    50    1.2352E+00  6.6360E-04   1.2346E+00  0.000E+00  0.000E+00  0.000E+00  1.25972E+02  8.222E-01  2.796E+00  5.019E-04  1.160E-03 -4.961E-04
   1    4   51     1    51    1.2346E+00  6.6339E-04   1.2339E+00  0.000E+00  0.000E+00  0.000E+00  1.25672E+02  8.219E-01  2.796E+00  5.018E-04  1.006E-03 -3.430E-04
   1    4   52     1    52    1.2339E+00  6.6319E-04   1.2332E+00  0.000E+00  0.000E+00  0.000E+00  1.25372E+02  8.217E-01  2.796E+00  5.018E-04  1.015E-03 -3.517E-04
   1    4   53     1    53    1.2332E+00  6.6298E-04   1.2326E+00  0.000E+00  0.000E+00  0.000E+00  1.25071E+02  8.215E-01  2.795E+00  5.017E-04  1.016E-03 -3.534E-04
   1    4   54     1    54    1.2326E+00  6.6278E-04   1.2319E+00  0.000E+00  0.000E+00  0.000E+00  1.24771E+02  8.213E-01  2.795E+00  5.016E-04  1.111E-03 -4.486E-04
   1    4   55     1    55    1.2319E+00  6.6257E-04   1.2313E+00  0.000E+00  0.000E+00  0.000E+00  1.24471E+02  8.211E-01  2.795E+00  5.015E-04  1.233E-03 -5.700E-04
   1    4   56     1    56    1.2313E+00  6.6237E-04   1.2306E+00  0.000E+00  0.000E+00  0.000E+00  1.24171E+02  8.208E-01  2.795E+00  5.015E-04  1.177E-03 -5.147E-04
   1    4   57     1    57    1.2306E+00  6.6216E-04   1.2299E+00  0.000E+00  0.000E+00  0.000E+00  1.23871E+02  8.206E-01  2.794E+00  5.014E-04  1.137E-03 -4.744E-04
   1    4   58     1    58    1.2299E+00  6.6195E-04   1.2293E+00  0.000E+00  0.000E+00  0.000E+00  1.23570E+02  8.204E-01  2.794E+00  5.013E-04  1.060E-03 -3.981E-04
   1    4   59     1    59    1.2293E+00  6.6175E-04   1.2286E+00  0.000E+00  0.000E+00  0.000E+00  1.23270E+02  8.202E-01  2.794E+00  5.013E-04  9.473E-04 -2.856E-04
   1    4   60     1    60    1.2286E+00  6.6154E-04   1.2279E+00  0.000E+00  0.000E+00  0.000E+00  1.22970E+02  8.200E-01  2.794E+00  5.012E-04  9.448E-04 -2.833E-04
   1    4   61     1    61    1.2279E+00  6.6134E-04   1.2273E+00  0.000E+00  0.000E+00  0.000E+00  1.22670E+02  8.197E-01  2.793E+00  5.011E-04  9.486E-04 -2.873E-04
   1    4   62     1    62    1.2273E+00  6.6113E-04   1.2266E+00  0.000E+00  0.000E+00  0.000E+00  1.22370E+02  8.195E-01  2.793E+00  5.010E-04  9.530E-04 -2.919E-04
   1    4   63     1    63    1.2266E+00  6.6093E-04   1.2260E+00  0.000E+00  0.000E+00  0.000E+00  1.22069E+02  8.193E-01  2.793E+00  5.010E-04  9.061E-04 -2.452E-04
   1    4   64     1    64    1.2260E+00  6.6072E-04   1.2253E+00  0.000E+00  0.000E+00  0.000E+00  1.21769E+02  8.191E-01  2.792E+00  5.009E-04  8.387E-04 -1.779E-04
   1    4   65     1    65    1.2253E+00  6.6052E-04   1.2246E+00  0.000E+00  0.000E+00  0.000E+00  1.21469E+02  8.189E-01  2.792E+00  5.008E-04  7.861E-04 -1.255E-04
   1    4   66     1    66    1.2246E+00  6.6031E-04   1.2240E+00  0.000E+00  0.000E+00  0.000E+00  1.21169E+02  8.186E-01  2.792E+00  5.008E-04  7.091E-04 -4.881E-05
   1    4   67     1    67    1.2240E+00  6.6011E-04   1.2233E+00  0.000E+00  0.000E+00  0.000E+00  1.20868E+02  8.184E-01  2.792E+00  5.007E-04  6.667E-04 -6.589E-06
   1    4   68     1    68    1.2233E+00  6.5990E-04   1.2227E+00  0.000E+00  0.000E+00  0.000E+00  1.20568E+02  8.182E-01  2.791E+00  5.006E-04  6.390E-04  2.093E-05
   1    4   69     1    69    1.2227E+00  6.5970E-04   1.2220E+00  0.000E+00  0.000E+00  0.000E+00  1.20268E+02  8.180E-01  2.791E+00  5.005E-04  6.301E-04  2.957E-05
   1    4   70     1    70    1.2220E+00  6.5949E-04   1.2213E+00  0.000E+00  0.000E+00  0.000E+00  1.19968E+02  8.178E-01  2.791E+00  5.005E-04  6.314E-04  2.811E-05
   1    4   71     1    71    1.2213E+00  6.5929E-04   1.2207E+00  0.000E+00  0.000E+00  0.000E+00  1.19668E+02  8.175E-01  2.791E+00  5.004E-04  6.326E-04  2.669E-05
   1    4   72     1    72    1.2207E+00  6.5909E-04   1.2200E+00  0.000E+00  0.000E+00  0.000E+00  1.19367E+02  8.173E-01  2.790E+00  5.003E-04  6.339E-04  2.522E-05
   1    4   73     1    73    1.2200E+00  6.5888E-04   1.2194E+00  0.000E+00  0.000E+00  0.000E+00  1.19067E+02  8.171E-01  2.790E+00  5.003E-04  6.353E-04  2.357E-05
   1    4   74     1    74    1.2194E+00  6.5868E-04   1.2187E+00  0.000E+00  0.000E+00  0.000E+00  1.18767E+02  8.169E-01  2.790E+00  5.002E-04  6.000E-04  5.868E-05
   1    4   75     1    75    1.2187E+00  6.5847E-04   1.2180E+00  0.000E+00  0.000E+00  0.000E+00  1.18467E+02  8.167E-01  2.790E+00  5.001E-04  5.720E-04  8.645E-05
   1    4   76     1    76    1.2180E+00  6.5827E-04   1.2174E+00  0.000E+00  0.000E+00  0.000E+00  1.18166E+02  8.164E-01  2.789E+00  5.000E-04  5.740E-04  8.423E-05
   1    4   77     1    77    1.2174E+00  6.5806E-04   1.2167E+00  0.000E+00  0.000E+00  0.000E+00  1.17866E+02  8.162E-01  2.789E+00  5.000E-04  5.763E-04  8.177E-05
   1    4   78     1    78    1.2167E+00  6.5786E-04   1.2161E+00  0.000E+00  0.000E+00  0.000E+00  1.17566E+02  8.160E-01  2.789E+00  4.999E-04  5.788E-04  7.901E-05
   1    4   79     1    79    1.2161E+00  6.5765E-04   1.2154E+00  0.000E+00  0.000E+00  0.000E+00  1.17266E+02  8.158E-01  2.789E+00  4.998E-04  5.825E-04  7.515E-05
   1    4   80     1    80    1.2154E+00  6.5745E-04   1.2148E+00  0.000E+00  0.000E+00  0.000E+00  1.16966E+02  8.156E-01  2.788E+00  4.998E-04  5.864E-04  7.105E-05
   1    4   81     1    81    1.2148E+00  6.5725E-04   1.2141E+00  0.000E+00  0.000E+00  0.000E+00  1.16665E+02  8.153E-01  2.788E+00  4.997E-04  5.907E-04  6.659E-05
   1    4   82     1    82    1.2141E+00  6.5704E-04   1.2134E+00  0.000E+00  0.000E+00  0.000E+00  1.16365E+02  8.151E-01  2.788E+00  4.996E-04  5.870E-04  7.000E-05
   1    4   83     1    83    1.2134E+00  6.5684E-04   1.2128E+00  0.000E+00  0.000E+00  0.000E+00  1.16065E+02  8.149E-01  2.787E+00  4.995E-04  5.880E-04  6.882E-05
   1    4   84     1    84    1.2128E+00  6.5663E-04   1.2121E+00  0.000E+00  0.000E+00  0.000E+00  1.15765E+02  8.147E-01  2.787E+00  4.995E-04  5.923E-04  6.429E-05
   1    4   85     1    85    1.2121E+00  6.5643E-04   1.2115E+00  0.000E+00  0.000E+00  0.000E+00  1.15464E+02  8.145E-01  2.787E+00  4.994E-04  5.969E-04  5.949E-05
   1    4   86     1    86    1.2115E+00  6.5623E-04   1.2108E+00  0.000E+00  0.000E+00  0.000E+00  1.15164E+02  8.142E-01  2.787E+00  4.993E-04  6.018E-04  5.443E-05
   1    4   87     1    87    1.2108E+00  6.5602E-04   1.2102E+00  0.000E+00  0.000E+00  0.000E+00  1.14864E+02  8.140E-01  2.786E+00  4.992E-04  6.069E-04  4.909E-05
   1    4   88     1    88    1.2102E+00  6.5582E-04   1.2095E+00  0.000E+00  0.000E+00  0.000E+00  1.14564E+02  8.138E-01  2.786E+00  4.992E-04  6.123E-04  4.348E-05
   1    4   89     1    89    1.2095E+00  6.5561E-04   1.2088E+00  0.000E+00  0.000E+00  0.000E+00  1.14264E+02  8.136E-01  2.786E+00  4.991E-04  6.186E-04  3.703E-05
   1    4   90     1    90    1.2088E+00  6.5541E-04   1.2082E+00  0.000E+00  0.000E+00  0.000E+00  1.13963E+02  8.134E-01  2.786E+00  4.990E-04  6.276E-04  2.780E-05
   1    4   91     1    91    1.2082E+00  6.5521E-04   1.2075E+00  0.000E+00  0.000E+00  0.000E+00  1.13663E+02  8.131E-01  2.785E+00  4.990E-04  6.465E-04  8.750E-06
   1    4   92     1    92    1.2075E+00  6.5500E-04   1.2069E+00  0.000E+00  0.000E+00  0.000E+00  1.13363E+02  8.129E-01  2.785E+00  4.989E-04  6.611E-04 -6.075E-06
   1    4   93     1    93    1.2069E+00  6.5480E-04   1.2062E+00  0.000E+00  0.000E+00  0.000E+00  1.13063E+02  8.127E-01  2.785E+00  4.988E-04  6.697E-04 -1.492E-05
   1    4   94     1    94    1.2062E+00  6.5460E-04   1.2056E+00  0.000E+00  0.000E+00  0.000E+00  1.12762E+02  8.125E-01  2.785E+00  4.987E-04  6.788E-04 -2.418E-05
   1    4   95     1    95    1.2056E+00  6.5439E-04   1.2049E+00  0.000E+00  0.000E+00  0.000E+00  1.12462E+02  8.123E-01  2.784E+00  4.987E-04  6.883E-04 -3.386E-05
   1    4   96     1    96    1.2049E+00  6.5419E-04   1.2043E+00  0.000E+00  0.000E+00  0.000E+00  1.12162E+02  8.120E-01  2.784E+00  4.986E-04  6.982E-04 -4.399E-05
   1    4   97     1    97    1.2043E+00  6.5398E-04   1.2036E+00  0.000E+00  0.000E+00  0.000E+00  1.11862E+02  8.118E-01  2.784E+00  4.985E-04  7.086E-04 -5.457E-05
   1    4   98     1    98    1.2036E+00  6.5378E-04   1.2030E+00  0.000E+00  0.000E+00  0.000E+00  1.11562E+02  8.116E-01  2.784E+00  4.985E-04  7.194E-04 -6.560E-05
   1    4   99     1    99    1.2030E+00  6.5358E-04   1.2023E+00  0.000E+00  0.000E+00  0.000E+00  1.11261E+02  8.114E-01  2.783E+00  4.984E-04  7.306E-04 -7.705E-05
   1    4  100     1   100    1.2023E+00  6.5337E-04   1.2016E+00  0.000E+00  0.000E+00  0.000E+00  1.10961E+02  8.112E-01  2.783E+00  4.983E-04  7.422E-04 -8.887E-05



1
  VOLUMETRIC BUDGET FOR UNSATURATED ZONE BENEATH STREAMS AT END OF TIME STEP    30 STRESS PERIOD  13
  ------------------------------------------------------------------------------------------------

    CUMULATIVE VOLUMES             L**3    RATES FOR THIS TIME STEP         L**3/T
    ------------------                     ------------------------


          STREAM LOSS =     13206697.0000            STREAM LOSS =        6.6352E-02
    CHANGE IN STORAGE =      1049496.1250      CHANGE IN STORAGE =       -8.8947E-03
       RECHARGE TO GW =     12161160.0000         RECHARGE TO GW =        7.5245E-02

             TOTAL IN =     13206697.0000               TOTAL IN =        7.5246E-02

            TOTAL OUT =     13210656.0000              TOTAL OUT =        7.5245E-02

             IN - OUT =        -3959.0000               IN - OUT =        7.9721E-07

  PERCENT DISCREPANCY =           -0.01      PERCENT DISCREPANCY =             0.00



1
  VOLUMETRIC BUDGET FOR ENTIRE MODEL AT END OF TIME STEP   30, STRESS PERIOD  13
  ------------------------------------------------------------------------------

     CUMULATIVE VOLUMES      L**3       RATES FOR THIS TIME STEP      L**3/T
     ------------------                 ------------------------

           IN:                                      IN:
           ---                                      ---
             STORAGE     =    70175136.0000               STORAGE     =           1.5298
       CONSTANT HEAD     =           0.0000         CONSTANT HEAD     =           0.0000
               WELLS     =           0.0000                 WELLS     =           0.0000
     HEAD DEP BOUNDS     =           0.0000       HEAD DEP BOUNDS     =           0.0000
      STREAM LEAKAGE     =    12161162.0000        STREAM LEAKAGE     =       7.5245E-02

                TOTAL IN =    82336296.0000                  TOTAL IN =           1.6051

          OUT:                                     OUT:
          ----                                     ----
             STORAGE     =     2373643.2500               STORAGE     =           0.0000
       CONSTANT HEAD     =           0.0000         CONSTANT HEAD     =           0.0000
               WELLS     =    66393312.0000                 WELLS     =           1.4561
     HEAD DEP BOUNDS     =    13569347.0000       HEAD DEP BOUNDS     =           0.1489
      STREAM LEAKAGE     =           0.0000        STREAM LEAKAGE     =           0.0000

               TOTAL OUT =    82336296.0000                 TOTAL OUT =           1.6051

                IN - OUT =           0.0000                  IN - OUT =      -1.1921E-07

     PERCENT DISCREPANCY =           0.00         PERCENT DISCREPANCY =          -0.00






         TIME SUMMARY AT END OF TIME STEP   30 IN STRESS PERIOD   13
                    SECONDS     MINUTES      HOURS       DAYS        YEARS
                    -----------------------------------------------------------
   TIME STEP LENGTH 2.49961E+05  4166.0      69.434      2.8931     7.92080E-03
 STRESS PERIOD TIME 2.59200E+06  43200.      720.00      30.000     8.21355E-02
         TOTAL TIME 3.36960E+07 5.61600E+05  9360.0      390.00      1.0678    
1
1
                            STRESS PERIOD NO.   14, LENGTH =   2592000.    
                            -----------------------------------------------

                              NUMBER OF TIME STEPS =    30

                               MULTIPLIER FOR DELT =     1.100

                            INITIAL TIME STEP SIZE =   15757.40    

 REUSING NON-PARAMETER WELLS FROM LAST STRESS PERIOD

      1 WELL 

 REUSING NON-PARAMETER GHB CELLS FROM LAST STRESS PERIOD

      7 GHB CELLS



 CLASSIFICATION & COUNT OF STREAM SEGMENTS BASED ON SOURCE OF INFLOW:

                HEADWATER     DIVERSION     RECEIVES TRIBUTARY FLOW
                ---------     ---------     -----------------------
                     1              0               0



                    INPUT DATA FOR EACH STREAM SEGMENT
 ---------------------------------------------------------------------------------------------

 SEGMENT    SEG.     INFLOW   OVERLAND   STREAM    STREAM   ICALC  OUTFLOW  DIVERSION PRIORITY
    NO.    LENGTH     RATE     RUNOFF      ET       PPT.    METH.  TO SEG.  FROM SEG.    NO.

      1  2.000E+04 3.350E+00 0.000E+00 0.000E+00 0.000E+00    2        0        0        0


         STREAMBED PROPERTIES AND STREAM DIMENSIONS

 SEGMENT     BED HYD. COND.      BED THICKNESS     ELEV.-TOP OF BED     WIDTH OF STREAM     DEPTH OF STREAM    STREAM ROUGHNESS
    No.     UPPER     LOWER     UPPER     LOWER     UPPER     LOWER     UPPER     LOWER     UPPER     LOWER   CHANNEL      BANK

     1  3.500E-07 3.500E-07                                                                                 3.000E-02 4.000E-02

  EIGHT POINT CROSS-SECTION DATA FOR SEGMENTS WITH ICALC = 2
    X VALUES X VALUES START FROM LEFT SIDE LOOKING DOWNSTREAM

     SEGMENT NO.        X1        X2        X3        X4        X5        X6        X7        X8
            1      0.000E+00 2.000E+00 4.000E+00 6.000E+00 8.000E+00 1.000E+01 1.200E+01 1.400E+01

    Z VALUES ARE RELATIVE TO STREAMBED ELEVATION

     SEGMENT NO.          Z1        Z2        Z3        Z4        Z5        Z6        Z7        Z8
            1      6.000E+00 4.500E+00 3.500E+00 0.000E+00 3.000E-01 3.500E+00 4.500E+00 6.000E+00



 
 SOLVING FOR HEAD 
                                                   Max.-Head-Change                         Max.-Flux-Residual
  Residual-Control   Outer-Iter.   Inner-Iter.     Column Row Layer    Maximum-Head-Change  Column Row Layer    Maximum-Flux-Residual          L2-NORM 
          0                 1           2            52    7     1      -0.2598486985E-01      50    3    1        -0.1827463654E+00      0.2549278592E+00
          0                 2           2            52    7     1       0.2571392879E-02      50    3    1         0.2269058190E-01      0.2955277262E-01
          0                 3           2            52    7     1      -0.2293169474E-03      50    3    1        -0.2043335158E-02      0.2675335914E-02
          0                 4           1            52    7     1       0.1820164323E-04      50    3    1         0.1637229652E-03      0.2143985195E-03
          0                 5           1            52    7     1      -0.1267957401E-05      50    3    1        -0.1150926738E-04      0.1507936457E-04
          0                 6           1            52    7     1       0.7613729478E-07      50    3    1         0.6974171546E-06      0.9139819255E-06

    ------------------------------------------------
       NWT REQUIRED            6 OUTER ITERATIONS 
       AND A TOTAL OF          9 INNER ITERATIONS.
    ------------------------------------------------

 NO OUTPUT CONTROL FOR STRESS PERIOD   14   TIME STEP    1
 
 WELLS WITH REDUCED PUMPING FOR STRESS PERIOD    14 TIME STEP     1
   LAY   ROW   COL         APPL.Q          ACT.Q        GW-HEAD       CELL-BOT
     1     3    50  -0.149979E+01  -0.761983E+00   0.566018E-03   0.000000E+00
     1     5    55  -0.149979E+01  -0.692066E+00   0.526441E-03   0.000000E+00
 
 
 SOLVING FOR HEAD 
                                                   Max.-Head-Change                         Max.-Flux-Residual
  Residual-Control   Outer-Iter.   Inner-Iter.     Column Row Layer    Maximum-Head-Change  Column Row Layer    Maximum-Flux-Residual          L2-NORM 
          0                 1           2            52    7     1      -0.2836711035E-01      52    7    1        -0.5397696543E-02      0.6345233704E-01
          0                 2           2            52    7     1       0.2806268813E-02      52    7    1         0.5397206714E-03      0.6181291025E-02
          0                 3           2            52    7     1      -0.2502506595E-03      52    7    1        -0.4857549904E-04      0.5656790274E-03
          0                 4           1            52    7     1       0.1986322863E-04      52    7    1         0.3890893365E-05      0.4610559913E-04
          0                 5           1            52    7     1      -0.1383695382E-05      52    7    1        -0.2735233301E-06      0.3279490883E-05
          0                 6           1            52    7     1       0.8308633098E-07      52    7    1         0.1657426178E-07      0.2000494370E-06

    ------------------------------------------------
       NWT REQUIRED            6 OUTER ITERATIONS 
       AND A TOTAL OF          9 INNER ITERATIONS.
    ------------------------------------------------

 NO OUTPUT CONTROL FOR STRESS PERIOD   14   TIME STEP    2
 
 WELLS WITH REDUCED PUMPING FOR STRESS PERIOD    14 TIME STEP     2
   LAY   ROW   COL         APPL.Q          ACT.Q        GW-HEAD       CELL-BOT
     1     3    50  -0.149990E+01  -0.760791E+00   0.565397E-03   0.000000E+00
     1     5    55  -0.149990E+01  -0.690957E+00   0.525868E-03   0.000000E+00
 
 
 SOLVING FOR HEAD 
                                                   Max.-Head-Change                         Max.-Flux-Residual
  Residual-Control   Outer-Iter.   Inner-Iter.     Column Row Layer    Maximum-Head-Change  Column Row Layer    Maximum-Flux-Residual          L2-NORM 
          0                 1           2            52    7     1      -0.3094476466E-01      52    7    1        -0.5357022755E-02      0.6331563491E-01
          0                 2           2            52    7     1       0.3060141661E-02      52    7    1         0.5356438405E-03      0.6168202253E-02
          0                 3           2            52    7     1      -0.2728703118E-03      52    7    1        -0.4820872622E-04      0.5652551455E-03
          0                 4           1            52    7     1       0.2165857179E-04      52    7    1         0.3861513658E-05      0.4616716521E-04
          0                 5           1            52    7     1      -0.1508754428E-05      52    7    1        -0.2714564295E-06      0.3290260948E-05
          0                 6           1            52    7     1       0.9059526800E-07      52    7    1         0.1644891991E-07      0.2009962386E-06

    ------------------------------------------------
       NWT REQUIRED            6 OUTER ITERATIONS 
       AND A TOTAL OF          9 INNER ITERATIONS.
    ------------------------------------------------

 NO OUTPUT CONTROL FOR STRESS PERIOD   14   TIME STEP    3
 
 WELLS WITH REDUCED PUMPING FOR STRESS PERIOD    14 TIME STEP     3
   LAY   ROW   COL         APPL.Q          ACT.Q        GW-HEAD       CELL-BOT
     1     3    50  -0.150012E+01  -0.759504E+00   0.564700E-03   0.000000E+00
     1     5    55  -0.150012E+01  -0.689753E+00   0.525222E-03   0.000000E+00
 
 
 SOLVING FOR HEAD 
                                                   Max.-Head-Change                         Max.-Flux-Residual
  Residual-Control   Outer-Iter.   Inner-Iter.     Column Row Layer    Maximum-Head-Change  Column Row Layer    Maximum-Flux-Residual          L2-NORM 
          0                 1           2            52    7     1      -0.3372923970E-01      52    7    1        -0.5312740005E-02      0.6317053121E-01
          0                 2           2            52    7     1       0.3334042405E-02      52    7    1         0.5312044045E-03      0.6153539355E-02
          0                 3           2            52    7     1      -0.2972641702E-03      52    7    1        -0.4780934984E-04      0.5646729826E-03
          0                 4           1            52    7     1       0.2359459756E-04      52    7    1         0.3829522127E-05      0.4622140979E-04
          0                 5           1            52    7     1      -0.1643608020E-05      52    7    1        -0.2692050957E-06      0.3301223169E-05
          0                 6           1            52    7     1       0.9869202020E-07      52    7    1         0.1631235431E-07      0.2020040459E-06

    ------------------------------------------------
       NWT REQUIRED            6 OUTER ITERATIONS 
       AND A TOTAL OF          9 INNER ITERATIONS.
    ------------------------------------------------

 NO OUTPUT CONTROL FOR STRESS PERIOD   14   TIME STEP    4
 
 WELLS WITH REDUCED PUMPING FOR STRESS PERIOD    14 TIME STEP     4
   LAY   ROW   COL         APPL.Q          ACT.Q        GW-HEAD       CELL-BOT
     1     3    50  -0.149992E+01  -0.758101E+00   0.564052E-03   0.000000E+00
     1     5    55  -0.149992E+01  -0.688437E+00   0.524616E-03   0.000000E+00
 
 
 SOLVING FOR HEAD 
                                                   Max.-Head-Change                         Max.-Flux-Residual
  Residual-Control   Outer-Iter.   Inner-Iter.     Column Row Layer    Maximum-Head-Change  Column Row Layer    Maximum-Flux-Residual          L2-NORM 
          0                 1           2            52    7     1      -0.3673163816E-01      52    7    1        -0.5264580592E-02      0.6301041718E-01
          0                 2           2            52    7     1       0.3628950399E-02      52    7    1         0.5263753218E-03      0.6138167649E-02
          0                 3           2            52    7     1      -0.3235146545E-03      52    7    1        -0.4737494214E-04      0.5640708542E-03
          0                 4           1            52    7     1       0.2567772683E-04      52    7    1         0.3794724242E-05      0.4628024855E-04
          0                 5           1            52    7     1      -0.1788699270E-05      52    7    1        -0.2667552587E-06      0.3313119695E-05
          0                 6           1            52    7     1       0.1074029972E-06      52    7    1         0.1616368758E-07      0.2031109152E-06

    ------------------------------------------------
       NWT REQUIRED            6 OUTER ITERATIONS 
       AND A TOTAL OF          9 INNER ITERATIONS.
    ------------------------------------------------

 NO OUTPUT CONTROL FOR STRESS PERIOD   14   TIME STEP    5
 
 WELLS WITH REDUCED PUMPING FOR STRESS PERIOD    14 TIME STEP     5
   LAY   ROW   COL         APPL.Q          ACT.Q        GW-HEAD       CELL-BOT
     1     3    50  -0.150010E+01  -0.756575E+00   0.563247E-03   0.000000E+00
     1     5    55  -0.150010E+01  -0.687002E+00   0.523865E-03   0.000000E+00
 
 
 SOLVING FOR HEAD 
                                                   Max.-Head-Change                         Max.-Flux-Residual
  Residual-Control   Outer-Iter.   Inner-Iter.     Column Row Layer    Maximum-Head-Change  Column Row Layer    Maximum-Flux-Residual          L2-NORM 
          0                 1           2            52    7     1      -0.3996217406E-01      52    7    1        -0.5212266783E-02      0.6283061854E-01
          0                 2           2            52    7     1       0.3945502297E-02      52    7    1         0.5211284185E-03      0.6121801304E-02
          0                 3           2            52    7     1      -0.3516894305E-03      52    7    1        -0.4690298173E-04      0.5632955588E-03
          0                 4           1            52    7     1       0.2791360893E-04      52    7    1         0.3756917958E-05      0.4632140407E-04
          0                 5           1            52    7     1      -0.1944418800E-05      52    7    1        -0.2640920955E-06      0.3324233119E-05
          0                 6           1            52    7     1       0.1167511960E-06      52    7    1         0.1600198304E-07      0.2042266266E-06

    ------------------------------------------------
       NWT REQUIRED            6 OUTER ITERATIONS 
       AND A TOTAL OF          9 INNER ITERATIONS.
    ------------------------------------------------

 NO OUTPUT CONTROL FOR STRESS PERIOD   14   TIME STEP    6
 
 WELLS WITH REDUCED PUMPING FOR STRESS PERIOD    14 TIME STEP     6
   LAY   ROW   COL         APPL.Q          ACT.Q        GW-HEAD       CELL-BOT
     1     3    50  -0.149991E+01  -0.754915E+00   0.562468E-03   0.000000E+00
     1     5    55  -0.149991E+01  -0.685438E+00   0.523134E-03   0.000000E+00
 
 
 SOLVING FOR HEAD 
                                                   Max.-Head-Change                         Max.-Flux-Residual
  Residual-Control   Outer-Iter.   Inner-Iter.     Column Row Layer    Maximum-Head-Change  Column Row Layer    Maximum-Flux-Residual          L2-NORM 
          0                 1           2            52    7     1      -0.4343045950E-01      52    7    1        -0.5155501188E-02      0.6263884355E-01
          0                 2           2            52    7     1       0.4284882693E-02      52    7    1         0.5154336331E-03      0.6102901026E-02
          0                 3           2            52    7     1      -0.3818560824E-03      52    7    1        -0.4639075904E-04      0.5623210332E-03
          0                 4           1            52    7     1       0.3030667529E-04      52    7    1         0.3715886167E-05      0.4635429311E-04
          0                 5           1            52    7     1      -0.2111062066E-05      52    7    1        -0.2611995291E-06      0.3335375897E-05
          0                 6           1            52    7     1       0.1267540275E-06      52    7    1         0.1582622096E-07      0.2053903703E-06

    ------------------------------------------------
       NWT REQUIRED            6 OUTER ITERATIONS 
       AND A TOTAL OF          9 INNER ITERATIONS.
    ------------------------------------------------

 NO OUTPUT CONTROL FOR STRESS PERIOD   14   TIME STEP    7
 
 WELLS WITH REDUCED PUMPING FOR STRESS PERIOD    14 TIME STEP     7
   LAY   ROW   COL         APPL.Q          ACT.Q        GW-HEAD       CELL-BOT
     1     3    50  -0.150004E+01  -0.753115E+00   0.561540E-03   0.000000E+00
     1     5    55  -0.150004E+01  -0.683737E+00   0.522263E-03   0.000000E+00
 
 
 SOLVING FOR HEAD 
                                                   Max.-Head-Change                         Max.-Flux-Residual
  Residual-Control   Outer-Iter.   Inner-Iter.     Column Row Layer    Maximum-Head-Change  Column Row Layer    Maximum-Flux-Residual          L2-NORM 
          0                 1           2            52    7     1      -0.4714417343E-01      52    7    1        -0.5093935079E-02      0.6243087752E-01
          0                 2           2            52    7     1       0.4647412702E-02      52    7    1         0.5092556745E-03      0.6082633506E-02
          0                 3           2            52    7     1      -0.4140460633E-03      52    7    1        -0.4583511355E-04      0.5612725612E-03
          0                 4           1            52    7     1       0.3285934525E-04      52    7    1         0.3671375598E-05      0.4639026535E-04
          0                 5           1            52    7     1      -0.2288779058E-05      52    7    1        -0.2580585423E-06      0.3347451281E-05
          0                 6           1            52    7     1       0.1374196914E-06      52    7    1         0.1563517962E-07      0.2066545552E-06

    ------------------------------------------------
       NWT REQUIRED            6 OUTER ITERATIONS 
       AND A TOTAL OF          9 INNER ITERATIONS.
    ------------------------------------------------

 NO OUTPUT CONTROL FOR STRESS PERIOD   14   TIME STEP    8
 
 WELLS WITH REDUCED PUMPING FOR STRESS PERIOD    14 TIME STEP     8
   LAY   ROW   COL         APPL.Q          ACT.Q        GW-HEAD       CELL-BOT
     1     3    50  -0.150006E+01  -0.751163E+00   0.560564E-03   0.000000E+00
     1     5    55  -0.150006E+01  -0.681888E+00   0.521343E-03   0.000000E+00
 
 
 SOLVING FOR HEAD 
                                                   Max.-Head-Change                         Max.-Flux-Residual
  Residual-Control   Outer-Iter.   Inner-Iter.     Column Row Layer    Maximum-Head-Change  Column Row Layer    Maximum-Flux-Residual          L2-NORM 
          0                 1           2            52    7     1      -0.5111145282E-01      52    7    1        -0.5027234784E-02      0.6221163616E-01
          0                 2           2            52    7     1       0.5034037278E-02      52    7    1         0.5025614094E-03      0.6060165835E-02
          0                 3           2            52    7     1      -0.4483052603E-03      52    7    1        -0.4523305452E-04      0.5599885057E-03
          0                 4           1            52    7     1       0.3557355926E-04      52    7    1         0.3623146659E-05      0.4641181292E-04
          0                 5           1            52    7     1      -0.2477655486E-05      52    7    1        -0.2546505966E-06      0.3359128085E-05
          0                 6           1            52    7     1       0.1487520782E-06      52    7    1         0.1542763849E-07      0.2079464549E-06

    ------------------------------------------------
       NWT REQUIRED            6 OUTER ITERATIONS 
       AND A TOTAL OF          9 INNER ITERATIONS.
    ------------------------------------------------

 NO OUTPUT CONTROL FOR STRESS PERIOD   14   TIME STEP    9
 
 WELLS WITH REDUCED PUMPING FOR STRESS PERIOD    14 TIME STEP     9
   LAY   ROW   COL         APPL.Q          ACT.Q        GW-HEAD       CELL-BOT
     1     3    50  -0.149994E+01  -0.749048E+00   0.559542E-03   0.000000E+00
     1     5    55  -0.149994E+01  -0.679882E+00   0.520377E-03   0.000000E+00
 
 
 SOLVING FOR HEAD 
                                                   Max.-Head-Change                         Max.-Flux-Residual
  Residual-Control   Outer-Iter.   Inner-Iter.     Column Row Layer    Maximum-Head-Change  Column Row Layer    Maximum-Flux-Residual          L2-NORM 
          0                 1           2            52    7     1      -0.5533811945E-01      52    7    1        -0.4955225156E-02      0.6197601965E-01
          0                 2           2            52    7     1       0.5444482650E-02      52    7    1         0.4953329302E-03      0.6036605535E-02
          0                 3           2            52    7     1      -0.4846337917E-03      52    7    1        -0.4458299855E-04      0.5585998770E-03
          0                 4           1            52    7     1       0.3845036870E-04      52    7    1         0.3571072372E-05      0.4642782708E-04
          0                 5           1            52    7     1      -0.2677741861E-05      52    7    1        -0.2509644303E-06      0.3370903058E-05
          0                 6           1            52    7     1       0.1607523530E-06      52    7    1         0.1520278047E-07      0.2092900223E-06

    ------------------------------------------------
       NWT REQUIRED            6 OUTER ITERATIONS 
       AND A TOTAL OF          9 INNER ITERATIONS.
    ------------------------------------------------

 NO OUTPUT CONTROL FOR STRESS PERIOD   14   TIME STEP   10
 
 WELLS WITH REDUCED PUMPING FOR STRESS PERIOD    14 TIME STEP    10
   LAY   ROW   COL         APPL.Q          ACT.Q        GW-HEAD       CELL-BOT
     1     3    50  -0.150003E+01  -0.746760E+00   0.558378E-03   0.000000E+00
     1     5    55  -0.150003E+01  -0.677706E+00   0.519278E-03   0.000000E+00
 
 
 SOLVING FOR HEAD 
                                                   Max.-Head-Change                         Max.-Flux-Residual
  Residual-Control   Outer-Iter.   Inner-Iter.     Column Row Layer    Maximum-Head-Change  Column Row Layer    Maximum-Flux-Residual          L2-NORM 
          0                 1           2            52    7     1      -0.5982660722E-01      52    7    1        -0.4877770668E-02      0.6171856035E-01
          0                 2           2            52    7     1       0.5879025374E-02      52    7    1         0.4875557641E-03      0.6011376709E-02
          0                 3           2            52    7     1      -0.5230303861E-03      52    7    1        -0.4388364669E-04      0.5570110375E-03
          0                 4           1            52    7     1       0.4148827060E-04      52    7    1         0.3515048599E-05      0.4642685394E-04
          0                 5           1            52    7     1      -0.2888850686E-05      52    7    1        -0.2469894939E-06      0.3381791964E-05
          0                 6           1            53    1     1       0.1734353355E-06      52    7    1         0.1495978469E-07      0.2106224758E-06

    ------------------------------------------------
       NWT REQUIRED            6 OUTER ITERATIONS 
       AND A TOTAL OF          9 INNER ITERATIONS.
    ------------------------------------------------

 NO OUTPUT CONTROL FOR STRESS PERIOD   14   TIME STEP   11
 
 WELLS WITH REDUCED PUMPING FOR STRESS PERIOD    14 TIME STEP    11
   LAY   ROW   COL         APPL.Q          ACT.Q        GW-HEAD       CELL-BOT
     1     3    50  -0.150005E+01  -0.744286E+00   0.557144E-03   0.000000E+00
     1     5    55  -0.150005E+01  -0.675351E+00   0.518108E-03   0.000000E+00
 
 
 SOLVING FOR HEAD 
                                                   Max.-Head-Change                         Max.-Flux-Residual
  Residual-Control   Outer-Iter.   Inner-Iter.     Column Row Layer    Maximum-Head-Change  Column Row Layer    Maximum-Flux-Residual          L2-NORM 
          0                 1           2            53    1     1      -0.6458260307E-01      52    7    1        -0.4794555081E-02      0.6144274745E-01
          0                 2           2            53    1     1       0.6338829359E-02      52    7    1         0.4791976676E-03      0.5984003333E-02
          0                 3           2            53    1     1      -0.5636170377E-03      52    7    1        -0.4313211063E-04      0.5552450266E-03
          0                 4           1            53    1     1       0.4469818397E-04      52    7    1         0.3454843811E-05      0.4641551169E-04
          0                 5           1            53    1     1      -0.3112782375E-05      53    1    1        -0.2427273805E-06      0.3392285736E-05
          0                 6           1            53    1     1       0.1868820245E-06      72    4    1        -0.1554985474E-07      0.2119620003E-06

    ------------------------------------------------
       NWT REQUIRED            6 OUTER ITERATIONS 
       AND A TOTAL OF          9 INNER ITERATIONS.
    ------------------------------------------------

 NO OUTPUT CONTROL FOR STRESS PERIOD   14   TIME STEP   12
 
 WELLS WITH REDUCED PUMPING FOR STRESS PERIOD    14 TIME STEP    12
   LAY   ROW   COL         APPL.Q          ACT.Q        GW-HEAD       CELL-BOT
     1     3    50  -0.149994E+01  -0.741618E+00   0.555842E-03   0.000000E+00
     1     5    55  -0.149994E+01  -0.672805E+00   0.516870E-03   0.000000E+00
 
 
 SOLVING FOR HEAD 
                                                   Max.-Head-Change                         Max.-Flux-Residual
  Residual-Control   Outer-Iter.   Inner-Iter.     Column Row Layer    Maximum-Head-Change  Column Row Layer    Maximum-Flux-Residual          L2-NORM 
          0                 1           2            53    1     1      -0.6963768942E-01      53    1    1        -0.4705718246E-02      0.6114970817E-01
          0                 2           2            53    1     1       0.6824826310E-02      53    1    1         0.4702715696E-03      0.5954618850E-02
          0                 3           2            53    1     1      -0.6063695087E-03      53    1    1        -0.4232956470E-04      0.5532133530E-03
          0                 4           1            53    1     1       0.4807260597E-04      53    1    1         0.3390552061E-05      0.4638180745E-04
          0                 5           1            53    1     1      -0.3347157538E-05      62    4    1         0.2399665782E-06      0.3401436534E-05
          0                 6           1            53    1     1       0.2009333348E-06      72    4    1        -0.1616214007E-07      0.2132563525E-06

    ------------------------------------------------
       NWT REQUIRED            6 OUTER ITERATIONS 
       AND A TOTAL OF          9 INNER ITERATIONS.
    ------------------------------------------------

 NO OUTPUT CONTROL FOR STRESS PERIOD   14   TIME STEP   13
 
 WELLS WITH REDUCED PUMPING FOR STRESS PERIOD    14 TIME STEP    13
   LAY   ROW   COL         APPL.Q          ACT.Q        GW-HEAD       CELL-BOT
     1     3    50  -0.149995E+01  -0.738743E+00   0.554407E-03   0.000000E+00
     1     5    55  -0.149995E+01  -0.670057E+00   0.515505E-03   0.000000E+00
 
 
 SOLVING FOR HEAD 
                                                   Max.-Head-Change                         Max.-Flux-Residual
  Residual-Control   Outer-Iter.   Inner-Iter.     Column Row Layer    Maximum-Head-Change  Column Row Layer    Maximum-Flux-Residual          L2-NORM 
          0                 1           2            53    1     1      -0.7494772751E-01      53    1    1        -0.4613421465E-02      0.6083696382E-01
          0                 2           2            53    1     1       0.7333216373E-02      53    1    1         0.4609924929E-03      0.5923365661E-02
          0                 3           2            53    1     1      -0.6509521916E-03      53    1    1        -0.4149538554E-04      0.5508897167E-03
          0                 4           1            53    1     1       0.5158488021E-04      53    1    1         0.3323724965E-05      0.4631323017E-04
          0                 5           1            53    1     1      -0.3590730092E-05      62    4    1         0.2484006956E-06      0.3407629619E-05
          0                 6           1            53    1     1       0.2155224265E-06      64    4    1        -0.1687412343E-07      0.2143804968E-06

    ------------------------------------------------
       NWT REQUIRED            6 OUTER ITERATIONS 
       AND A TOTAL OF          9 INNER ITERATIONS.
    ------------------------------------------------

 NO OUTPUT CONTROL FOR STRESS PERIOD   14   TIME STEP   14
 
 WELLS WITH REDUCED PUMPING FOR STRESS PERIOD    14 TIME STEP    14
   LAY   ROW   COL         APPL.Q          ACT.Q        GW-HEAD       CELL-BOT
     1     3    50  -0.150003E+01  -0.735650E+00   0.552849E-03   0.000000E+00
     1     5    55  -0.150003E+01  -0.667095E+00   0.514019E-03   0.000000E+00
 
 
 SOLVING FOR HEAD 
                                                   Max.-Head-Change                         Max.-Flux-Residual
  Residual-Control   Outer-Iter.   Inner-Iter.     Column Row Layer    Maximum-Head-Change  Column Row Layer    Maximum-Flux-Residual          L2-NORM 
          0                 1           2            53    1     1      -0.8050054038E-01      53    1    1        -0.4514518576E-02      0.6050194777E-01
          0                 2           2            53    1     1       0.7862265094E-02      53    1    1         0.4510469383E-03      0.5890145468E-02
          0                 3           2            53    1     1      -0.6971923605E-03      53    1    1        -0.4060134700E-04      0.5484321729E-03
          0                 4           1            53    1     1       0.5521886405E-04      53    1    1         0.3252101777E-05      0.4624167148E-04
          0                 5           1            53    1     1      -0.3842165222E-05      62    4    1         0.2565732160E-06      0.3413939007E-05
          0                 6           1            53    1     1       0.2305609600E-06      64    4    1        -0.1755976875E-07      0.2155289746E-06

    ------------------------------------------------
       NWT REQUIRED            6 OUTER ITERATIONS 
       AND A TOTAL OF          9 INNER ITERATIONS.
    ------------------------------------------------

 NO OUTPUT CONTROL FOR STRESS PERIOD   14   TIME STEP   15
 
 WELLS WITH REDUCED PUMPING FOR STRESS PERIOD    14 TIME STEP    15
   LAY   ROW   COL         APPL.Q          ACT.Q        GW-HEAD       CELL-BOT
     1     3    50  -0.150003E+01  -0.732331E+00   0.551196E-03   0.000000E+00
     1     5    55  -0.150003E+01  -0.663907E+00   0.512437E-03   0.000000E+00
 
 
 SOLVING FOR HEAD 
                                                   Max.-Head-Change                         Max.-Flux-Residual
  Residual-Control   Outer-Iter.   Inner-Iter.     Column Row Layer    Maximum-Head-Change  Column Row Layer    Maximum-Flux-Residual          L2-NORM 
          0                 1           2            53    1     1      -0.8627756628E-01      53    1    1        -0.4408926436E-02      0.6014291990E-01
          0                 2           2            53    1     1       0.8409906844E-02      53    1    1         0.4404260992E-03      0.5854715606E-02
          0                 3           2            53    1     1      -0.7448753735E-03      53    1    1        -0.3964665781E-04      0.5456919467E-03
          0                 4           1            53    1     1       0.5895619418E-04      53    1    1         0.3175619075E-05      0.4614014309E-04
          0                 5           1            53    1     1      -0.4099957470E-05      64    4    1         0.2603444003E-06      0.3417669676E-05
          0                 6           1            53    1     1       0.2459470456E-06      64    4    1        -0.1822533768E-07      0.2165201861E-06

    ------------------------------------------------
       NWT REQUIRED            6 OUTER ITERATIONS 
       AND A TOTAL OF          9 INNER ITERATIONS.
    ------------------------------------------------

 NO OUTPUT CONTROL FOR STRESS PERIOD   14   TIME STEP   16
 
 WELLS WITH REDUCED PUMPING FOR STRESS PERIOD    14 TIME STEP    16
   LAY   ROW   COL         APPL.Q          ACT.Q        GW-HEAD       CELL-BOT
     1     3    50  -0.150003E+01  -0.728775E+00   0.549426E-03   0.000000E+00
     1     5    55  -0.150003E+01  -0.660483E+00   0.510737E-03   0.000000E+00
 
 
 SOLVING FOR HEAD 
                                                   Max.-Head-Change                         Max.-Flux-Residual
  Residual-Control   Outer-Iter.   Inner-Iter.     Column Row Layer    Maximum-Head-Change  Column Row Layer    Maximum-Flux-Residual          L2-NORM 
          0                 1           2            53    1     1      -0.9225257133E-01      53    1    1        -0.4296542383E-02      0.5976134196E-01
          0                 2           2            53    1     1       0.8973143346E-02      53    1    1         0.4291193364E-03      0.5816816405E-02
          0                 3           2            53    1     1      -0.7936995042E-03      53    1    1        -0.3863036289E-04      0.5426216883E-03
          0                 4           1            53    1     1       0.6276983120E-04      53    1    1         0.3094200316E-05      0.4599957637E-04
          0                 5           1            53    1     1      -0.4361856778E-05      64    4    1         0.2674944479E-06      0.3417531705E-05
          0                 6           1            53    1     1       0.2615285468E-06      64    4    1        -0.1886322742E-07      0.2172373967E-06

    ------------------------------------------------
       NWT REQUIRED            6 OUTER ITERATIONS 
       AND A TOTAL OF          9 INNER ITERATIONS.
    ------------------------------------------------

 NO OUTPUT CONTROL FOR STRESS PERIOD   14   TIME STEP   17
 
 WELLS WITH REDUCED PUMPING FOR STRESS PERIOD    14 TIME STEP    17
   LAY   ROW   COL         APPL.Q          ACT.Q        GW-HEAD       CELL-BOT
     1     3    50  -0.149998E+01  -0.724974E+00   0.547545E-03   0.000000E+00
     1     5    55  -0.149998E+01  -0.656812E+00   0.508925E-03   0.000000E+00
 
 
 SOLVING FOR HEAD 
                                                   Max.-Head-Change                         Max.-Flux-Residual
  Residual-Control   Outer-Iter.   Inner-Iter.     Column Row Layer    Maximum-Head-Change  Column Row Layer    Maximum-Flux-Residual          L2-NORM 
          0                 1           2            53    1     1      -0.9839197469E-01      53    1    1        -0.4177275659E-02      0.5935401752E-01
          0                 2           2            53    1     1       0.9548347132E-02      53    1    1         0.4171176148E-03      0.5776889787E-02
          0                 3           2            53    1     1      -0.8433123685E-03      53    1    1        -0.3755164311E-04      0.5394260885E-03
          0                 4           1            53    1     1       0.6662902630E-04      61    4    1        -0.3068279105E-05      0.4585307910E-04
          0                 5           1            53    1     1      -0.4625274238E-05      64    4    1         0.2742638596E-06      0.3416547966E-05
          0                 6           1            53    1     1       0.2771288275E-06      64    4    1        -0.1947570816E-07      0.2178739693E-06

    ------------------------------------------------
       NWT REQUIRED            6 OUTER ITERATIONS 
       AND A TOTAL OF          9 INNER ITERATIONS.
    ------------------------------------------------

 NO OUTPUT CONTROL FOR STRESS PERIOD   14   TIME STEP   18
 
 WELLS WITH REDUCED PUMPING FOR STRESS PERIOD    14 TIME STEP    18
   LAY   ROW   COL         APPL.Q          ACT.Q        GW-HEAD       CELL-BOT
     1     3    50  -0.149997E+01  -0.720967E+00   0.545551E-03   0.000000E+00
     1     5    55  -0.149997E+01  -0.652886E+00   0.506976E-03   0.000000E+00
 
 
 SOLVING FOR HEAD 
                                                   Max.-Head-Change                         Max.-Flux-Residual
  Residual-Control   Outer-Iter.   Inner-Iter.     Column Row Layer    Maximum-Head-Change  Column Row Layer    Maximum-Flux-Residual          L2-NORM 
          0                 1           2            53    1     1      -0.1046549055E+00      53    1    1        -0.4051108841E-02      0.5892561299E-01
          0                 2           2            53    1     1       0.1013126300E-01      53    1    1         0.4044196043E-03      0.5734104801E-02
          0                 3           2            53    1     1      -0.8933058561E-03      53    1    1        -0.3641036488E-04      0.5357467804E-03
          0                 4           1            53    1     1       0.7049825513E-04      61    4    1        -0.3109730508E-05      0.4564625191E-04
          0                 5           1            53    1     1      -0.4887106478E-05      64    4    1         0.2805660522E-06      0.3409288011E-05
          0                 6           1            53    1     1       0.2925282728E-06      64    4    1        -0.2005674560E-07      0.2180408051E-06

    ------------------------------------------------
       NWT REQUIRED            6 OUTER ITERATIONS 
       AND A TOTAL OF          9 INNER ITERATIONS.
    ------------------------------------------------

 NO OUTPUT CONTROL FOR STRESS PERIOD   14   TIME STEP   19
 
 WELLS WITH REDUCED PUMPING FOR STRESS PERIOD    14 TIME STEP    19
   LAY   ROW   COL         APPL.Q          ACT.Q        GW-HEAD       CELL-BOT
     1     3    50  -0.149997E+01  -0.716691E+00   0.543422E-03   0.000000E+00
     1     5    55  -0.149997E+01  -0.648696E+00   0.504894E-03   0.000000E+00
 
 
 SOLVING FOR HEAD 
                                                   Max.-Head-Change                         Max.-Flux-Residual
  Residual-Control   Outer-Iter.   Inner-Iter.     Column Row Layer    Maximum-Head-Change  Column Row Layer    Maximum-Flux-Residual          L2-NORM 
          0                 1           2            53    1     1      -0.1109932059E+00      53    1    1        -0.3918132820E-02      0.5847349852E-01
          0                 2           2            53    1     1       0.1071696199E-01      53    1    1         0.3910351275E-03      0.5689409892E-02
          0                 3           2            53    1     1      -0.9432183960E-03      53    1    1        -0.3520739276E-04      0.5320422056E-03
          0                 4           1            53    1     1       0.7433791309E-04      61    4    1        -0.3122114530E-05      0.4546017996E-04
          0                 5           1            53    1     1      -0.5143906284E-05      64    4    1         0.2863880386E-06      0.3403932487E-05
          0                 6           1            53    1     1       0.3074893379E-06      64    4    1        -0.2060405180E-07      0.2183187283E-06

    ------------------------------------------------
       NWT REQUIRED            6 OUTER ITERATIONS 
       AND A TOTAL OF          9 INNER ITERATIONS.
    ------------------------------------------------

 NO OUTPUT CONTROL FOR STRESS PERIOD   14   TIME STEP   20
 
 WELLS WITH REDUCED PUMPING FOR STRESS PERIOD    14 TIME STEP    20
   LAY   ROW   COL         APPL.Q          ACT.Q        GW-HEAD       CELL-BOT
     1     3    50  -0.150002E+01  -0.712104E+00   0.541125E-03   0.000000E+00
     1     5    55  -0.150002E+01  -0.644232E+00   0.502662E-03   0.000000E+00
 
 
 SOLVING FOR HEAD 
                                                   Max.-Head-Change                         Max.-Flux-Residual
  Residual-Control   Outer-Iter.   Inner-Iter.     Column Row Layer    Maximum-Head-Change  Column Row Layer    Maximum-Flux-Residual          L2-NORM 
          0                 1           3            53    1     1      -0.1173526466E+00      53    1    1        -0.3778563500E-02      0.5799691481E-01
          0                 2           2            53    1     1       0.1130011337E-01      53    1    1         0.3769869922E-03      0.5642229495E-02
          0                 3           2            53    1     1      -0.9925554729E-03      53    1    1        -0.3394474982E-04      0.5280100807E-03
          0                 4           1            53    1     1       0.7810543760E-04      61    4    1        -0.3155208760E-05      0.4522797534E-04
          0                 5           1            53    1     1      -0.5391728489E-05      62    4    1         0.2859566077E-06      0.3392497623E-05
          0                 6           1            53    1     1       0.3217232418E-06      66    4    1        -0.2067272220E-07      0.2180805234E-06

    ------------------------------------------------
       NWT REQUIRED            6 OUTER ITERATIONS 
       AND A TOTAL OF         10 INNER ITERATIONS.
    ------------------------------------------------

 NO OUTPUT CONTROL FOR STRESS PERIOD   14   TIME STEP   21
 
 WELLS WITH REDUCED PUMPING FOR STRESS PERIOD    14 TIME STEP    21
   LAY   ROW   COL         APPL.Q          ACT.Q        GW-HEAD       CELL-BOT
     1     3    50  -0.150000E+01  -0.707252E+00   0.538711E-03   0.000000E+00
     1     5    55  -0.150000E+01  -0.639468E+00   0.500294E-03   0.000000E+00
 
 
 SOLVING FOR HEAD 
                                                   Max.-Head-Change                         Max.-Flux-Residual
  Residual-Control   Outer-Iter.   Inner-Iter.     Column Row Layer    Maximum-Head-Change  Column Row Layer    Maximum-Flux-Residual          L2-NORM 
          0                 1           3            53    1     1      -0.1236715257E+00      53    1    1        -0.3632776148E-02      0.5750122761E-01
          0                 2           2            53    1     1       0.1187462704E-01      53    1    1         0.3623138776E-03      0.5592428992E-02
          0                 3           2            53    1     1      -0.1040770603E-02      53    1    1        -0.3262588795E-04      0.5234777858E-03
          0                 4           1            53    1     1       0.8175494345E-04      61    4    1        -0.3189581682E-05      0.4493300936E-04
          0                 5           1            53    1     1      -0.5626225760E-05      62    4    1         0.2901684564E-06      0.3373662909E-05
          0                 6           1            53    1     1       0.3349095906E-06      66    4    1        -0.2112022379E-07      0.2172458245E-06

    ------------------------------------------------
       NWT REQUIRED            6 OUTER ITERATIONS 
       AND A TOTAL OF         10 INNER ITERATIONS.
    ------------------------------------------------

 NO OUTPUT CONTROL FOR STRESS PERIOD   14   TIME STEP   22
 
 WELLS WITH REDUCED PUMPING FOR STRESS PERIOD    14 TIME STEP    22
   LAY   ROW   COL         APPL.Q          ACT.Q        GW-HEAD       CELL-BOT
     1     3    50  -0.149999E+01  -0.702124E+00   0.536156E-03   0.000000E+00
     1     5    55  -0.149999E+01  -0.634427E+00   0.497783E-03   0.000000E+00
 
 
 SOLVING FOR HEAD 
                                                   Max.-Head-Change                         Max.-Flux-Residual
  Residual-Control   Outer-Iter.   Inner-Iter.     Column Row Layer    Maximum-Head-Change  Column Row Layer    Maximum-Flux-Residual          L2-NORM 
          0                 1           3            53    1     1      -0.1298822782E+00      53    1    1        -0.3481250788E-02      0.5697934999E-01
          0                 2           2            53    1     1       0.1243409223E-01      53    1    1         0.3470654108E-03      0.5540963271E-02
          0                 3           2            53    1     1      -0.1087289510E-02      53    1    1        -0.3125523490E-04      0.5189035526E-03
          0                 4           1            53    1     1       0.8523806853E-04      63    4    1        -0.3177772158E-05      0.4462880851E-04
          0                 5           1            53    1     1      -0.5842748203E-05      62    4    1         0.2943872195E-06      0.3350981475E-05
          0                 6           1            53    1     1       0.3467129562E-06      66    4    1        -0.2152975576E-07      0.2159805001E-06

    ------------------------------------------------
       NWT REQUIRED            6 OUTER ITERATIONS 
       AND A TOTAL OF         10 INNER ITERATIONS.
    ------------------------------------------------

 NO OUTPUT CONTROL FOR STRESS PERIOD   14   TIME STEP   23
 
 WELLS WITH REDUCED PUMPING FOR STRESS PERIOD    14 TIME STEP    23
   LAY   ROW   COL         APPL.Q          ACT.Q        GW-HEAD       CELL-BOT
     1     3    50  -0.149998E+01  -0.696708E+00   0.533457E-03   0.000000E+00
     1     5    55  -0.149998E+01  -0.629091E+00   0.495123E-03   0.000000E+00
 
 
 SOLVING FOR HEAD 
                                                   Max.-Head-Change                         Max.-Flux-Residual
  Residual-Control   Outer-Iter.   Inner-Iter.     Column Row Layer    Maximum-Head-Change  Column Row Layer    Maximum-Flux-Residual          L2-NORM 
          0                 1           3            63    1     1      -0.1360952911E+00      53    1    1        -0.3324596862E-02      0.5623876246E-01
          0                 2           2            53    1     1       0.1297166413E-01      53    1    1         0.3313044673E-03      0.5494473690E-02
          0                 3           2            53    1     1      -0.1131516464E-02      53    1    1        -0.2983840772E-04      0.5171119680E-03
          0                 4           1            53    1     1       0.8850934590E-04      63    4    1        -0.3195943727E-05      0.4469017941E-04
          0                 5           1            53    1     1      -0.6040371746E-05      62    4    1         0.2973800495E-06      0.3358958295E-05
          0                 6           1            53    1     1       0.3572856991E-06      66    4    1        -0.2189088910E-07      0.2166392767E-06

    ------------------------------------------------
       NWT REQUIRED            6 OUTER ITERATIONS 
       AND A TOTAL OF         10 INNER ITERATIONS.
    ------------------------------------------------

 NO OUTPUT CONTROL FOR STRESS PERIOD   14   TIME STEP   24
 
 WELLS WITH REDUCED PUMPING FOR STRESS PERIOD    14 TIME STEP    24
   LAY   ROW   COL         APPL.Q          ACT.Q        GW-HEAD       CELL-BOT
     1     3    50  -0.149999E+01  -0.691011E+00   0.530611E-03   0.000000E+00
     1     5    55  -0.149999E+01  -0.623459E+00   0.492308E-03   0.000000E+00
 
 
 SOLVING FOR HEAD 
                                                   Max.-Head-Change                         Max.-Flux-Residual
  Residual-Control   Outer-Iter.   Inner-Iter.     Column Row Layer    Maximum-Head-Change  Column Row Layer    Maximum-Flux-Residual          L2-NORM 
          0                 1           3            63    1     1      -0.1483169094E+00      63    1    1        -0.3178850236E-02      0.5531208379E-01
          0                 2           2            63    1     1       0.1355028798E-01      63    1    1         0.3177796848E-03      0.5399332344E-02
          0                 3           2            53    1     1      -0.1172855237E-02      63    1    1        -0.2860734883E-04      0.5088133896E-03
          0                 4           1            53    1     1       0.9151574057E-04      63    4    1        -0.3207508716E-05      0.4411796003E-04
          0                 5           1            53    1     1      -0.6209553834E-05      62    4    1         0.2995104937E-06      0.3314820691E-05
          0                 6           1            53    1     1       0.3656946455E-06      66    4    1        -0.2220470563E-07      0.2138714784E-06

    ------------------------------------------------
       NWT REQUIRED            6 OUTER ITERATIONS 
       AND A TOTAL OF         10 INNER ITERATIONS.
    ------------------------------------------------

 NO OUTPUT CONTROL FOR STRESS PERIOD   14   TIME STEP   25
 
 WELLS WITH REDUCED PUMPING FOR STRESS PERIOD    14 TIME STEP    25
   LAY   ROW   COL         APPL.Q          ACT.Q        GW-HEAD       CELL-BOT
     1     3    50  -0.150002E+01  -0.685030E+00   0.527620E-03   0.000000E+00
     1     5    55  -0.150002E+01  -0.617526E+00   0.489336E-03   0.000000E+00
 
 
 SOLVING FOR HEAD 
                                                   Max.-Head-Change                         Max.-Flux-Residual
  Residual-Control   Outer-Iter.   Inner-Iter.     Column Row Layer    Maximum-Head-Change  Column Row Layer    Maximum-Flux-Residual          L2-NORM 
          0                 1           3            64    1     1      -0.1616613813E+00      63    1    1        -0.3150082050E-02      0.5446807163E-01
          0                 2           2            64    1     1       0.1472630624E-01      63    1    1         0.3148844307E-03      0.5310334539E-02
          0                 3           2            53    1     1      -0.1210946616E-02      63    1    1        -0.2834763200E-04      0.5006487129E-03
          0                 4           1            53    1     1       0.9422529789E-04      63    4    1        -0.3212462535E-05      0.4352291748E-04
          0                 5           1            53    1     1      -0.6346081625E-05      62    4    1         0.3009398819E-06      0.3264359920E-05
          0                 6           1            53    1     1       0.3716378937E-06      66    4    1        -0.2247687725E-07      0.2105371616E-06

    ------------------------------------------------
       NWT REQUIRED            6 OUTER ITERATIONS 
       AND A TOTAL OF         10 INNER ITERATIONS.
    ------------------------------------------------

 NO OUTPUT CONTROL FOR STRESS PERIOD   14   TIME STEP   26
 
 WELLS WITH REDUCED PUMPING FOR STRESS PERIOD    14 TIME STEP    26
   LAY   ROW   COL         APPL.Q          ACT.Q        GW-HEAD       CELL-BOT
     1     3    50  -0.150001E+01  -0.678769E+00   0.524493E-03   0.000000E+00
     1     5    55  -0.150001E+01  -0.611293E+00   0.486217E-03   0.000000E+00
 
 
 SOLVING FOR HEAD 
                                                   Max.-Head-Change                         Max.-Flux-Residual
  Residual-Control   Outer-Iter.   Inner-Iter.     Column Row Layer    Maximum-Head-Change  Column Row Layer    Maximum-Flux-Residual          L2-NORM 
          0                 1           3            64    1     1      -0.1761304483E+00      64    1    1        -0.3122112684E-02      0.5367176548E-01
          0                 2           2            64    1     1       0.1601531947E-01      64    1    1         0.3120890136E-03      0.5230583510E-02
          0                 3           2            64    1     1      -0.1312904109E-02      64    2    1        -0.2809498385E-04      0.4935047817E-03
          0                 4           1            53    1     1       0.9663974836E-04      70    4    1        -0.3373014870E-05      0.4299625681E-04
          0                 5           1            53    1     1      -0.6450023930E-05      70    4    1         0.3228588792E-06      0.3213543202E-05
          0                 6           1            53    1     1       0.3752178655E-06      70    4    1        -0.2392789256E-07      0.2069527547E-06

    ------------------------------------------------
       NWT REQUIRED            6 OUTER ITERATIONS 
       AND A TOTAL OF         10 INNER ITERATIONS.
    ------------------------------------------------

 NO OUTPUT CONTROL FOR STRESS PERIOD   14   TIME STEP   27
 
 WELLS WITH REDUCED PUMPING FOR STRESS PERIOD    14 TIME STEP    27
   LAY   ROW   COL         APPL.Q          ACT.Q        GW-HEAD       CELL-BOT
     1     3    50  -0.150000E+01  -0.672229E+00   0.521225E-03   0.000000E+00
     1     5    55  -0.150000E+01  -0.604748E+00   0.482937E-03   0.000000E+00
 
 
 SOLVING FOR HEAD 
                                                   Max.-Head-Change                         Max.-Flux-Residual
  Residual-Control   Outer-Iter.   Inner-Iter.     Column Row Layer    Maximum-Head-Change  Column Row Layer    Maximum-Flux-Residual          L2-NORM 
          0                 1           3            64    1     1      -0.1915342624E+00      64    1    1        -0.3092775082E-02      0.5287806005E-01
          0                 2           2            64    1     1       0.1737034790E-01      64    1    1         0.3091279737E-03      0.5152310891E-02
          0                 3           2            64    1     1      -0.1419374289E-02      64    2    1        -0.2782979683E-04      0.4865820851E-03
          0                 4           1            63    1     1       0.1032967740E-03      69    4    1        -0.3522165558E-05      0.4249442274E-04
          0                 5           1            63    1     1      -0.6522138674E-05      68    4    1         0.3248715377E-06      0.3158636662E-05
          0                 6           1            53    1     1       0.3761441128E-06      68    4    1        -0.2393493936E-07      0.2028822048E-06

    ------------------------------------------------
       NWT REQUIRED            6 OUTER ITERATIONS 
       AND A TOTAL OF         10 INNER ITERATIONS.
    ------------------------------------------------

 NO OUTPUT CONTROL FOR STRESS PERIOD   14   TIME STEP   28
 
 WELLS WITH REDUCED PUMPING FOR STRESS PERIOD    14 TIME STEP    28
   LAY   ROW   COL         APPL.Q          ACT.Q        GW-HEAD       CELL-BOT
     1     3    50  -0.150000E+01  -0.665381E+00   0.517798E-03   0.000000E+00
     1     5    55  -0.150000E+01  -0.597868E+00   0.479482E-03   0.000000E+00
 
 
 SOLVING FOR HEAD 
                                                   Max.-Head-Change                         Max.-Flux-Residual
  Residual-Control   Outer-Iter.   Inner-Iter.     Column Row Layer    Maximum-Head-Change  Column Row Layer    Maximum-Flux-Residual          L2-NORM 
          0                 1           3            64    1     1      -0.2071810829E+00      64    1    1        -0.3058174263E-02      0.5207302447E-01
          0                 2           3            64    1     1       0.1870890581E-01      64    1    1         0.3056019581E-03      0.5073540010E-02
          0                 3           2            63    1     1      -0.1522734424E-02      67    4    1         0.2856936914E-04      0.4797475579E-03
          0                 4           2            63    1     1       0.1106787354E-03      67    4    1        -0.3657481464E-05      0.4199255966E-04
          0                 5           1            63    1     1      -0.7076037980E-05      67    4    1         0.3422166870E-06      0.3262262124E-05
          0                 6           1            53    1     1       0.3916799227E-06      66    4    1        -0.2502181928E-07      0.2073972697E-06

    ------------------------------------------------
       NWT REQUIRED            6 OUTER ITERATIONS 
       AND A TOTAL OF         12 INNER ITERATIONS.
    ------------------------------------------------

 NO OUTPUT CONTROL FOR STRESS PERIOD   14   TIME STEP   29
 
 WELLS WITH REDUCED PUMPING FOR STRESS PERIOD    14 TIME STEP    29
   LAY   ROW   COL         APPL.Q          ACT.Q        GW-HEAD       CELL-BOT
     1     3    50  -0.149999E+01  -0.658269E+00   0.514239E-03   0.000000E+00
     1     5    55  -0.149999E+01  -0.590691E+00   0.475874E-03   0.000000E+00
 
 
 SOLVING FOR HEAD 
                                                   Max.-Head-Change                         Max.-Flux-Residual
  Residual-Control   Outer-Iter.   Inner-Iter.     Column Row Layer    Maximum-Head-Change  Column Row Layer    Maximum-Flux-Residual          L2-NORM 
          0                 1           3            64    1     1      -0.2219169415E+00      64    1    1        -0.3008359394E-02      0.5125247332E-01
          0                 2           3            64    1     1       0.1992181688E-01      64    1    1         0.3004890489E-03      0.4993221652E-02
          0                 3           2            63    1     1      -0.1613861252E-02      65    4    1         0.2799736081E-04      0.4724573707E-03
          0                 4           2            63    1     1       0.1165170672E-03      65    4    1        -0.3602577362E-05      0.4141698472E-04
          0                 5           1            62    1     1      -0.7424653396E-05      65    4    1         0.3378158482E-06      0.3225002567E-05
          0                 6           1            61    1     1       0.4018962717E-06      64    4    1        -0.2468939542E-07      0.2032463666E-06

    ------------------------------------------------
       NWT REQUIRED            6 OUTER ITERATIONS 
       AND A TOTAL OF         12 INNER ITERATIONS.
    ------------------------------------------------

 NO OUTPUT CONTROL FOR STRESS PERIOD   14   TIME STEP   30
 
 WELLS WITH REDUCED PUMPING FOR STRESS PERIOD    14 TIME STEP    30
   LAY   ROW   COL         APPL.Q          ACT.Q        GW-HEAD       CELL-BOT
     1     3    50  -0.149999E+01  -0.650900E+00   0.510543E-03   0.000000E+00
     1     5    55  -0.149999E+01  -0.583225E+00   0.472110E-03   0.000000E+00
 



 STREAM LISTING     PERIOD     14   STEP       30

 LAYER ROW COL. STREAM  RCH.   FLOW INTO    STREAM     FLOW OUT OF   OVRLND.    DIRECT     STREAM      STREAM      STREAM     STREAM  STREAMBED   FLOW TO   CHNG. UNSAT. 
                SEG.NO.  NO.   STRM. RCH.    LOSS       STRM. RCH.   RUNOFF     PRECIP       ET         HEAD        DEPTH      WIDTH  CONDCTNC.   WAT. TAB.

   1    4    1     1     1    3.3500E+00  1.2735E-03   3.3487E+00  0.000E+00  0.000E+00  0.000E+00  1.41221E+02  1.370E+00  3.452E+00  6.809E-04  1.289E-03 -1.521E-05
   1    4    2     1     2    3.3487E+00  1.2732E-03   3.3475E+00  0.000E+00  0.000E+00  0.000E+00  1.40920E+02  1.370E+00  3.452E+00  6.808E-04  1.288E-03 -1.484E-05
   1    4    3     1     3    3.3475E+00  1.2728E-03   3.3462E+00  0.000E+00  0.000E+00  0.000E+00  1.40620E+02  1.370E+00  3.452E+00  6.807E-04  1.287E-03 -1.426E-05
   1    4    4     1     4    3.3462E+00  1.2725E-03   3.3449E+00  0.000E+00  0.000E+00  0.000E+00  1.40320E+02  1.370E+00  3.451E+00  6.806E-04  1.286E-03 -1.347E-05
   1    4    5     1     5    3.3449E+00  1.2721E-03   3.3436E+00  0.000E+00  0.000E+00  0.000E+00  1.40019E+02  1.369E+00  3.451E+00  6.805E-04  1.285E-03 -1.247E-05
   1    4    6     1     6    3.3436E+00  1.2718E-03   3.3424E+00  0.000E+00  0.000E+00  0.000E+00  1.39719E+02  1.369E+00  3.451E+00  6.804E-04  1.283E-03 -1.126E-05
   1    4    7     1     7    3.3424E+00  1.2714E-03   3.3411E+00  0.000E+00  0.000E+00  0.000E+00  1.39419E+02  1.369E+00  3.450E+00  6.803E-04  1.281E-03 -9.863E-06
   1    4    8     1     8    3.3411E+00  1.2711E-03   3.3398E+00  0.000E+00  0.000E+00  0.000E+00  1.39119E+02  1.369E+00  3.450E+00  6.802E-04  1.279E-03 -8.275E-06
   1    4    9     1     9    3.3398E+00  1.2707E-03   3.3386E+00  0.000E+00  0.000E+00  0.000E+00  1.38818E+02  1.368E+00  3.450E+00  6.801E-04  1.277E-03 -6.505E-06
   1    4   10     1    10    3.3386E+00  1.2704E-03   3.3373E+00  0.000E+00  0.000E+00  0.000E+00  1.38518E+02  1.368E+00  3.449E+00  6.801E-04  1.275E-03 -4.557E-06
   1    4   11     1    11    3.3373E+00  1.2700E-03   3.3360E+00  0.000E+00  0.000E+00  0.000E+00  1.38218E+02  1.368E+00  3.449E+00  6.800E-04  1.272E-03 -2.443E-06
   1    4   12     1    12    3.3360E+00  1.2697E-03   3.3347E+00  0.000E+00  0.000E+00  0.000E+00  1.37918E+02  1.368E+00  3.449E+00  6.799E-04  1.270E-03 -1.729E-07
   1    4   13     1    13    3.3347E+00  1.2693E-03   3.3335E+00  0.000E+00  0.000E+00  0.000E+00  1.37617E+02  1.367E+00  3.448E+00  6.798E-04  1.267E-03  2.247E-06
   1    4   14     1    14    3.3335E+00  1.2690E-03   3.3322E+00  0.000E+00  0.000E+00  0.000E+00  1.37317E+02  1.367E+00  3.448E+00  6.797E-04  1.264E-03  4.804E-06
   1    4   15     1    15    3.3322E+00  1.2686E-03   3.3309E+00  0.000E+00  0.000E+00  0.000E+00  1.37017E+02  1.367E+00  3.448E+00  6.796E-04  1.261E-03  7.486E-06
   1    4   16     1    16    3.3309E+00  1.2683E-03   3.3297E+00  0.000E+00  0.000E+00  0.000E+00  1.36716E+02  1.366E+00  3.447E+00  6.795E-04  1.258E-03  1.028E-05
   1    4   17     1    17    3.3297E+00  1.2679E-03   3.3284E+00  0.000E+00  0.000E+00  0.000E+00  1.36416E+02  1.366E+00  3.447E+00  6.794E-04  1.255E-03  1.318E-05
   1    4   18     1    18    3.3284E+00  1.2676E-03   3.3271E+00  0.000E+00  0.000E+00  0.000E+00  1.36116E+02  1.366E+00  3.447E+00  6.794E-04  1.251E-03  1.616E-05
   1    4   19     1    19    3.3271E+00  1.2673E-03   3.3259E+00  0.000E+00  0.000E+00  0.000E+00  1.35816E+02  1.366E+00  3.446E+00  6.793E-04  1.248E-03  1.922E-05
   1    4   20     1    20    3.3259E+00  1.2669E-03   3.3246E+00  0.000E+00  0.000E+00  0.000E+00  1.35515E+02  1.365E+00  3.446E+00  6.792E-04  1.245E-03  2.234E-05
   1    4   21     1    21    3.3246E+00  1.2666E-03   3.3233E+00  0.000E+00  0.000E+00  0.000E+00  1.35215E+02  1.365E+00  3.446E+00  6.791E-04  1.241E-03  2.551E-05
   1    4   22     1    22    3.3233E+00  1.2662E-03   3.3221E+00  0.000E+00  0.000E+00  0.000E+00  1.34915E+02  1.365E+00  3.445E+00  6.790E-04  1.237E-03  2.871E-05
   1    4   23     1    23    3.3221E+00  1.2659E-03   3.3208E+00  0.000E+00  0.000E+00  0.000E+00  1.34615E+02  1.365E+00  3.445E+00  6.789E-04  1.234E-03  3.194E-05
   1    4   24     1    24    3.3208E+00  1.2655E-03   3.3195E+00  0.000E+00  0.000E+00  0.000E+00  1.34314E+02  1.364E+00  3.445E+00  6.788E-04  1.230E-03  3.518E-05
   1    4   25     1    25    3.3195E+00  1.2652E-03   3.3183E+00  0.000E+00  0.000E+00  0.000E+00  1.34014E+02  1.364E+00  3.444E+00  6.787E-04  1.227E-03  3.842E-05
   1    4   26     1    26    3.3183E+00  1.2648E-03   3.3170E+00  0.000E+00  0.000E+00  0.000E+00  1.33714E+02  1.364E+00  3.444E+00  6.786E-04  1.223E-03  4.167E-05
   1    4   27     1    27    3.3170E+00  1.2645E-03   3.3157E+00  0.000E+00  0.000E+00  0.000E+00  1.33413E+02  1.363E+00  3.444E+00  6.786E-04  1.220E-03  4.492E-05
   1    4   28     1    28    3.3157E+00  1.2641E-03   3.3145E+00  0.000E+00  0.000E+00  0.000E+00  1.33113E+02  1.363E+00  3.443E+00  6.785E-04  1.216E-03  4.816E-05
   1    4   29     1    29    3.3145E+00  1.2638E-03   3.3132E+00  0.000E+00  0.000E+00  0.000E+00  1.32813E+02  1.363E+00  3.443E+00  6.784E-04  1.212E-03  5.139E-05
   1    4   30     1    30    3.3132E+00  1.2634E-03   3.3119E+00  0.000E+00  0.000E+00  0.000E+00  1.32513E+02  1.363E+00  3.443E+00  6.783E-04  1.209E-03  5.462E-05
   1    4   31     1    31    3.3119E+00  1.2631E-03   3.3107E+00  0.000E+00  0.000E+00  0.000E+00  1.32212E+02  1.362E+00  3.442E+00  6.782E-04  1.205E-03  5.786E-05
   1    4   32     1    32    3.3107E+00  1.2627E-03   3.3094E+00  0.000E+00  0.000E+00  0.000E+00  1.31912E+02  1.362E+00  3.442E+00  6.781E-04  1.207E-03  5.562E-05
   1    4   33     1    33    3.3094E+00  1.2624E-03   3.3082E+00  0.000E+00  0.000E+00  0.000E+00  1.31612E+02  1.362E+00  3.442E+00  6.780E-04  1.223E-03  3.915E-05
   1    4   34     1    34    3.3082E+00  1.2620E-03   3.3069E+00  0.000E+00  0.000E+00  0.000E+00  1.31312E+02  1.362E+00  3.442E+00  6.779E-04  1.219E-03  4.257E-05
   1    4   35     1    35    3.3069E+00  1.2617E-03   3.3056E+00  0.000E+00  0.000E+00  0.000E+00  1.31011E+02  1.361E+00  3.441E+00  6.779E-04  1.251E-03  1.065E-05
   1    4   36     1    36    3.3056E+00  1.2613E-03   3.3044E+00  0.000E+00  0.000E+00  0.000E+00  1.30711E+02  1.361E+00  3.441E+00  6.778E-04  1.247E-03  1.413E-05
   1    4   37     1    37    3.3044E+00  1.2610E-03   3.3031E+00  0.000E+00  0.000E+00  0.000E+00  1.30411E+02  1.361E+00  3.441E+00  6.777E-04  1.274E-03 -1.252E-05
   1    4   38     1    38    3.3031E+00  1.2607E-03   3.3019E+00  0.000E+00  0.000E+00  0.000E+00  1.30111E+02  1.360E+00  3.440E+00  6.776E-04  1.281E-03 -2.046E-05
   1    4   39     1    39    3.3019E+00  1.2603E-03   3.3006E+00  0.000E+00  0.000E+00  0.000E+00  1.29810E+02  1.360E+00  3.440E+00  6.775E-04  1.279E-03 -1.823E-05
   1    4   40     1    40    3.3006E+00  1.2600E-03   3.2993E+00  0.000E+00  0.000E+00  0.000E+00  1.29510E+02  1.360E+00  3.440E+00  6.774E-04  1.201E-03  5.945E-05
   1    4   41     1    41    3.2993E+00  1.2596E-03   3.2981E+00  0.000E+00  0.000E+00  0.000E+00  1.29210E+02  1.360E+00  3.439E+00  6.773E-04  9.455E-04  3.141E-04
   1    4   42     1    42    3.2981E+00  1.2593E-03   3.2968E+00  0.000E+00  0.000E+00  0.000E+00  1.28909E+02  1.359E+00  3.439E+00  6.772E-04  6.876E-04  5.717E-04
   1    4   43     1    43    3.2968E+00  1.2589E-03   3.2956E+00  0.000E+00  0.000E+00  0.000E+00  1.28609E+02  1.359E+00  3.439E+00  6.771E-04  6.865E-04  5.724E-04
   1    4   44     1    44    3.2956E+00  1.2586E-03   3.2943E+00  0.000E+00  0.000E+00  0.000E+00  1.28309E+02  1.359E+00  3.438E+00  6.771E-04  7.228E-04  5.358E-04
   1    4   45     1    45    3.2943E+00  1.2582E-03   3.2930E+00  0.000E+00  0.000E+00  0.000E+00  1.28009E+02  1.359E+00  3.438E+00  6.770E-04  7.263E-04  5.319E-04
   1    4   46     1    46    3.2930E+00  1.2579E-03   3.2918E+00  0.000E+00  0.000E+00  0.000E+00  1.27708E+02  1.358E+00  3.438E+00  6.769E-04  7.842E-04  4.737E-04
   1    4   47     1    47    3.2918E+00  1.2575E-03   3.2905E+00  0.000E+00  0.000E+00  0.000E+00  1.27408E+02  1.358E+00  3.437E+00  6.768E-04  7.954E-04  4.621E-04
   1    4   48     1    48    3.2905E+00  1.2572E-03   3.2893E+00  0.000E+00  0.000E+00  0.000E+00  1.27108E+02  1.358E+00  3.437E+00  6.767E-04  8.125E-04  4.446E-04
   1    4   49     1    49    3.2893E+00  1.2568E-03   3.2880E+00  0.000E+00  0.000E+00  0.000E+00  1.26808E+02  1.358E+00  3.437E+00  6.766E-04  8.851E-04  3.718E-04
   1    4   50     1    50    3.2880E+00  1.2565E-03   3.2867E+00  0.000E+00  0.000E+00  0.000E+00  1.26507E+02  1.357E+00  3.436E+00  6.765E-04  1.188E-03  6.805E-05
   1    4   51     1    51    3.2867E+00  1.2562E-03   3.2855E+00  0.000E+00  0.000E+00  0.000E+00  1.26207E+02  1.357E+00  3.436E+00  6.764E-04  1.031E-03  2.251E-04
   1    4   52     1    52    3.2855E+00  1.2558E-03   3.2842E+00  0.000E+00  0.000E+00  0.000E+00  1.25907E+02  1.357E+00  3.436E+00  6.764E-04  9.836E-04  2.722E-04
   1    4   53     1    53    3.2842E+00  1.2555E-03   3.2830E+00  0.000E+00  0.000E+00  0.000E+00  1.25606E+02  1.356E+00  3.435E+00  6.763E-04  9.797E-04  2.758E-04
   1    4   54     1    54    3.2830E+00  1.2551E-03   3.2817E+00  0.000E+00  0.000E+00  0.000E+00  1.25306E+02  1.356E+00  3.435E+00  6.762E-04  1.016E-03  2.387E-04
   1    4   55     1    55    3.2817E+00  1.2548E-03   3.2805E+00  0.000E+00  0.000E+00  0.000E+00  1.25006E+02  1.356E+00  3.435E+00  6.761E-04  1.172E-03  8.314E-05
   1    4   56     1    56    3.2805E+00  1.2544E-03   3.2792E+00  0.000E+00  0.000E+00  0.000E+00  1.24706E+02  1.356E+00  3.434E+00  6.760E-04  8.667E-04  3.877E-04
   1    4   57     1    57    3.2792E+00  1.2541E-03   3.2780E+00  0.000E+00  0.000E+00  0.000E+00  1.24405E+02  1.355E+00  3.434E+00  6.759E-04  7.919E-04  4.622E-04
   1    4   58     1    58    3.2780E+00  1.2537E-03   3.2767E+00  0.000E+00  0.000E+00  0.000E+00  1.24105E+02  1.355E+00  3.434E+00  6.758E-04  7.699E-04  4.838E-04
   1    4   59     1    59    3.2767E+00  1.2534E-03   3.2755E+00  0.000E+00  0.000E+00  0.000E+00  1.23805E+02  1.355E+00  3.433E+00  6.757E-04  7.541E-04  4.993E-04
   1    4   60     1    60    3.2755E+00  1.2531E-03   3.2742E+00  0.000E+00  0.000E+00  0.000E+00  1.23505E+02  1.355E+00  3.433E+00  6.757E-04  6.937E-04  5.593E-04
   1    4   61     1    61    3.2742E+00  1.2527E-03   3.2730E+00  0.000E+00  0.000E+00  0.000E+00  1.23204E+02  1.354E+00  3.433E+00  6.756E-04  6.861E-04  5.667E-04
   1    4   62     1    62    3.2730E+00  1.2524E-03   3.2717E+00  0.000E+00  0.000E+00  0.000E+00  1.22904E+02  1.354E+00  3.433E+00  6.755E-04  6.811E-04  5.712E-04
   1    4   63     1    63    3.2717E+00  1.2520E-03   3.2704E+00  0.000E+00  0.000E+00  0.000E+00  1.22604E+02  1.354E+00  3.432E+00  6.754E-04  7.657E-04  4.863E-04
   1    4   64     1    64    3.2704E+00  1.2517E-03   3.2692E+00  0.000E+00  0.000E+00  0.000E+00  1.22303E+02  1.353E+00  3.432E+00  6.753E-04  1.057E-03  1.949E-04
   1    4   65     1    65    3.2692E+00  1.2513E-03   3.2679E+00  0.000E+00  0.000E+00  0.000E+00  1.22003E+02  1.353E+00  3.432E+00  6.752E-04  1.221E-03  2.994E-05
   1    4   66     1    66    3.2679E+00  1.2510E-03   3.2667E+00  0.000E+00  0.000E+00  0.000E+00  1.21703E+02  1.353E+00  3.431E+00  6.751E-04  1.220E-03  3.135E-05
   1    4   67     1    67    3.2667E+00  1.2506E-03   3.2654E+00  0.000E+00  0.000E+00  0.000E+00  1.21403E+02  1.353E+00  3.431E+00  6.750E-04  1.218E-03  3.255E-05
   1    4   68     1    68    3.2654E+00  1.2503E-03   3.2642E+00  0.000E+00  0.000E+00  0.000E+00  1.21102E+02  1.352E+00  3.431E+00  6.750E-04  1.181E-03  6.975E-05
   1    4   69     1    69    3.2642E+00  1.2500E-03   3.2629E+00  0.000E+00  0.000E+00  0.000E+00  1.20802E+02  1.352E+00  3.430E+00  6.749E-04  1.181E-03  6.879E-05
   1    4   70     1    70    3.2629E+00  1.2496E-03   3.2617E+00  0.000E+00  0.000E+00  0.000E+00  1.20502E+02  1.352E+00  3.430E+00  6.748E-04  1.151E-03  9.864E-05
   1    4   71     1    71    3.2617E+00  1.2493E-03   3.2604E+00  0.000E+00  0.000E+00  0.000E+00  1.20202E+02  1.352E+00  3.430E+00  6.747E-04  1.152E-03  9.720E-05
   1    4   72     1    72    3.2604E+00  1.2489E-03   3.2592E+00  0.000E+00  0.000E+00  0.000E+00  1.19901E+02  1.351E+00  3.429E+00  6.746E-04  1.153E-03  9.557E-05
   1    4   73     1    73    3.2592E+00  1.2486E-03   3.2579E+00  0.000E+00  0.000E+00  0.000E+00  1.19601E+02  1.351E+00  3.429E+00  6.745E-04  1.155E-03  9.371E-05
   1    4   74     1    74    3.2579E+00  1.2482E-03   3.2567E+00  0.000E+00  0.000E+00  0.000E+00  1.19301E+02  1.351E+00  3.429E+00  6.744E-04  1.157E-03  9.164E-05
   1    4   75     1    75    3.2567E+00  1.2479E-03   3.2554E+00  0.000E+00  0.000E+00  0.000E+00  1.19001E+02  1.351E+00  3.428E+00  6.743E-04  1.155E-03  9.307E-05
   1    4   76     1    76    3.2554E+00  1.2475E-03   3.2542E+00  0.000E+00  0.000E+00  0.000E+00  1.18700E+02  1.350E+00  3.428E+00  6.743E-04  1.152E-03  9.551E-05
   1    4   77     1    77    3.2542E+00  1.2472E-03   3.2530E+00  0.000E+00  0.000E+00  0.000E+00  1.18400E+02  1.350E+00  3.428E+00  6.742E-04  1.155E-03  9.266E-05
   1    4   78     1    78    3.2530E+00  1.2469E-03   3.2517E+00  0.000E+00  0.000E+00  0.000E+00  1.18100E+02  1.350E+00  3.427E+00  6.741E-04  1.157E-03  8.957E-05
   1    4   79     1    79    3.2517E+00  1.2465E-03   3.2505E+00  0.000E+00  0.000E+00  0.000E+00  1.17799E+02  1.349E+00  3.427E+00  6.740E-04  1.160E-03  8.622E-05
   1    4   80     1    80    3.2505E+00  1.2462E-03   3.2492E+00  0.000E+00  0.000E+00  0.000E+00  1.17499E+02  1.349E+00  3.427E+00  6.739E-04  1.164E-03  8.259E-05
   1    4   81     1    81    3.2492E+00  1.2458E-03   3.2480E+00  0.000E+00  0.000E+00  0.000E+00  1.17199E+02  1.349E+00  3.426E+00  6.738E-04  1.167E-03  7.869E-05
   1    4   82     1    82    3.2480E+00  1.2455E-03   3.2467E+00  0.000E+00  0.000E+00  0.000E+00  1.16899E+02  1.349E+00  3.426E+00  6.737E-04  1.171E-03  7.450E-05
   1    4   83     1    83    3.2467E+00  1.2451E-03   3.2455E+00  0.000E+00  0.000E+00  0.000E+00  1.16598E+02  1.348E+00  3.426E+00  6.736E-04  1.175E-03  7.001E-05
   1    4   84     1    84    3.2455E+00  1.2448E-03   3.2442E+00  0.000E+00  0.000E+00  0.000E+00  1.16298E+02  1.348E+00  3.425E+00  6.736E-04  1.180E-03  6.523E-05
   1    4   85     1    85    3.2442E+00  1.2445E-03   3.2430E+00  0.000E+00  0.000E+00  0.000E+00  1.15998E+02  1.348E+00  3.425E+00  6.735E-04  1.184E-03  6.014E-05
   1    4   86     1    86    3.2430E+00  1.2441E-03   3.2417E+00  0.000E+00  0.000E+00  0.000E+00  1.15698E+02  1.348E+00  3.425E+00  6.734E-04  1.189E-03  5.474E-05
   1    4   87     1    87    3.2417E+00  1.2438E-03   3.2405E+00  0.000E+00  0.000E+00  0.000E+00  1.15397E+02  1.347E+00  3.424E+00  6.733E-04  1.195E-03  4.905E-05
   1    4   88     1    88    3.2405E+00  1.2434E-03   3.2393E+00  0.000E+00  0.000E+00  0.000E+00  1.15097E+02  1.347E+00  3.424E+00  6.732E-04  1.202E-03  4.128E-05
   1    4   89     1    89    3.2393E+00  1.2431E-03   3.2380E+00  0.000E+00  0.000E+00  0.000E+00  1.14797E+02  1.347E+00  3.424E+00  6.731E-04  1.209E-03  3.386E-05
   1    4   90     1    90    3.2380E+00  1.2427E-03   3.2368E+00  0.000E+00  0.000E+00  0.000E+00  1.14497E+02  1.347E+00  3.424E+00  6.730E-04  1.217E-03  2.609E-05
   1    4   91     1    91    3.2368E+00  1.2424E-03   3.2355E+00  0.000E+00  0.000E+00  0.000E+00  1.14196E+02  1.346E+00  3.423E+00  6.729E-04  1.224E-03  1.798E-05
   1    4   92     1    92    3.2355E+00  1.2421E-03   3.2343E+00  0.000E+00  0.000E+00  0.000E+00  1.13896E+02  1.346E+00  3.423E+00  6.728E-04  1.233E-03  9.525E-06
   1    4   93     1    93    3.2343E+00  1.2417E-03   3.2330E+00  0.000E+00  0.000E+00  0.000E+00  1.13596E+02  1.346E+00  3.423E+00  6.728E-04  1.241E-03  7.642E-07
   1    4   94     1    94    3.2330E+00  1.2414E-03   3.2318E+00  0.000E+00  0.000E+00  0.000E+00  1.13295E+02  1.345E+00  3.422E+00  6.727E-04  1.250E-03 -8.281E-06
   1    4   95     1    95    3.2318E+00  1.2410E-03   3.2306E+00  0.000E+00  0.000E+00  0.000E+00  1.12995E+02  1.345E+00  3.422E+00  6.726E-04  1.259E-03 -1.758E-05
   1    4   96     1    96    3.2306E+00  1.2407E-03   3.2293E+00  0.000E+00  0.000E+00  0.000E+00  1.12695E+02  1.345E+00  3.422E+00  6.725E-04  1.268E-03 -2.708E-05
   1    4   97     1    97    3.2293E+00  1.2404E-03   3.2281E+00  0.000E+00  0.000E+00  0.000E+00  1.12395E+02  1.345E+00  3.421E+00  6.724E-04  1.277E-03 -3.676E-05
   1    4   98     1    98    3.2281E+00  1.2400E-03   3.2268E+00  0.000E+00  0.000E+00  0.000E+00  1.12094E+02  1.344E+00  3.421E+00  6.723E-04  1.287E-03 -4.659E-05
   1    4   99     1    99    3.2268E+00  1.2397E-03   3.2256E+00  0.000E+00  0.000E+00  0.000E+00  1.11794E+02  1.344E+00  3.421E+00  6.722E-04  1.296E-03 -5.656E-05
   1    4  100     1   100    3.2256E+00  1.2393E-03   3.2244E+00  0.000E+00  0.000E+00  0.000E+00  1.11494E+02  1.344E+00  3.420E+00  6.721E-04  1.306E-03 -6.671E-05



1
  VOLUMETRIC BUDGET FOR UNSATURATED ZONE BENEATH STREAMS AT END OF TIME STEP    30 STRESS PERIOD  14
  ------------------------------------------------------------------------------------------------

    CUMULATIVE VOLUMES             L**3    RATES FOR THIS TIME STEP         L**3/T
    ------------------                     ------------------------


          STREAM LOSS =     13532400.0000            STREAM LOSS =            0.1256
    CHANGE IN STORAGE =      1142181.1250      CHANGE IN STORAGE =        1.1835E-02
       RECHARGE TO GW =     12394111.0000         RECHARGE TO GW =            0.1138

             TOTAL IN =     13532400.0000               TOTAL IN =            0.1256

            TOTAL OUT =     13536292.0000              TOTAL OUT =            0.1256

             IN - OUT =        -3892.0000               IN - OUT =       -2.9802E-08

  PERCENT DISCREPANCY =           -0.01      PERCENT DISCREPANCY =            -0.00



1
  VOLUMETRIC BUDGET FOR ENTIRE MODEL AT END OF TIME STEP   30, STRESS PERIOD  14
  ------------------------------------------------------------------------------

     CUMULATIVE VOLUMES      L**3       RATES FOR THIS TIME STEP      L**3/T
     ------------------                 ------------------------

           IN:                                      IN:
           ---                                      ---
             STORAGE     =    73729944.0000               STORAGE     =           1.2473
       CONSTANT HEAD     =           0.0000         CONSTANT HEAD     =           0.0000
               WELLS     =           0.0000                 WELLS     =           0.0000
     HEAD DEP BOUNDS     =           0.0000       HEAD DEP BOUNDS     =           0.0000
      STREAM LEAKAGE     =    12394122.0000        STREAM LEAKAGE     =           0.1138

                TOTAL IN =    86124064.0000                  TOTAL IN =           1.3611

          OUT:                                     OUT:
          ----                                     ----
             STORAGE     =     2373643.5000               STORAGE     =           0.0000
       CONSTANT HEAD     =           0.0000         CONSTANT HEAD     =           0.0000
               WELLS     =    69826528.0000                 WELLS     =           1.2341
     HEAD DEP BOUNDS     =    13923881.0000       HEAD DEP BOUNDS     =           0.1270
      STREAM LEAKAGE     =           0.0000        STREAM LEAKAGE     =           0.0000

               TOTAL OUT =    86124048.0000                 TOTAL OUT =           1.3611

                IN - OUT =          16.0000                  IN - OUT =      -1.1921E-07

     PERCENT DISCREPANCY =           0.00         PERCENT DISCREPANCY =          -0.00






         TIME SUMMARY AT END OF TIME STEP   30 IN STRESS PERIOD   14
                    SECONDS     MINUTES      HOURS       DAYS        YEARS
                    -----------------------------------------------------------
   TIME STEP LENGTH 2.49961E+05  4166.0      69.434      2.8931     7.92080E-03
 STRESS PERIOD TIME 2.59200E+06  43200.      720.00      30.000     8.21355E-02
         TOTAL TIME 3.62880E+07 6.04800E+05  10080.      420.00      1.1499    
1
1
                            STRESS PERIOD NO.   15, LENGTH =   2592000.    
                            -----------------------------------------------

                              NUMBER OF TIME STEPS =    30

                               MULTIPLIER FOR DELT =     1.100

                            INITIAL TIME STEP SIZE =   15757.40    

 REUSING NON-PARAMETER WELLS FROM LAST STRESS PERIOD

      1 WELL 

 REUSING NON-PARAMETER GHB CELLS FROM LAST STRESS PERIOD

      7 GHB CELLS



 CLASSIFICATION & COUNT OF STREAM SEGMENTS BASED ON SOURCE OF INFLOW:

                HEADWATER     DIVERSION     RECEIVES TRIBUTARY FLOW
                ---------     ---------     -----------------------
                     1              0               0



                    INPUT DATA FOR EACH STREAM SEGMENT
 ---------------------------------------------------------------------------------------------

 SEGMENT    SEG.     INFLOW   OVERLAND   STREAM    STREAM   ICALC  OUTFLOW  DIVERSION PRIORITY
    NO.    LENGTH     RATE     RUNOFF      ET       PPT.    METH.  TO SEG.  FROM SEG.    NO.

      1  2.000E+04 6.180E+00 0.000E+00 0.000E+00 0.000E+00    2        0        0        0


         STREAMBED PROPERTIES AND STREAM DIMENSIONS

 SEGMENT     BED HYD. COND.      BED THICKNESS     ELEV.-TOP OF BED     WIDTH OF STREAM     DEPTH OF STREAM    STREAM ROUGHNESS
    No.     UPPER     LOWER     UPPER     LOWER     UPPER     LOWER     UPPER     LOWER     UPPER     LOWER   CHANNEL      BANK

     1  3.500E-07 3.500E-07                                                                                 3.000E-02 4.000E-02

  EIGHT POINT CROSS-SECTION DATA FOR SEGMENTS WITH ICALC = 2
    X VALUES X VALUES START FROM LEFT SIDE LOOKING DOWNSTREAM

     SEGMENT NO.        X1        X2        X3        X4        X5        X6        X7        X8
            1      0.000E+00 2.000E+00 4.000E+00 6.000E+00 8.000E+00 1.000E+01 1.200E+01 1.400E+01

    Z VALUES ARE RELATIVE TO STREAMBED ELEVATION

     SEGMENT NO.          Z1        Z2        Z3        Z4        Z5        Z6        Z7        Z8
            1      6.000E+00 4.500E+00 3.500E+00 0.000E+00 3.000E-01 3.500E+00 4.500E+00 6.000E+00



 
 SOLVING FOR HEAD 
                                                   Max.-Head-Change                         Max.-Flux-Residual
  Residual-Control   Outer-Iter.   Inner-Iter.     Column Row Layer    Maximum-Head-Change  Column Row Layer    Maximum-Flux-Residual          L2-NORM 
          0                 1           2            64    1     1      -0.1405897640E-01      50    3    1         0.7377947413E-01      0.1111692528E+00
          0                 2           2            64    1     1       0.1376441399E-02      50    3    1        -0.7783170752E-02      0.1174265794E-01
          0                 3           2            64    1     1      -0.1220458442E-03      50    3    1         0.6997928803E-03      0.1056791226E-02
          0                 4           1            64    1     1       0.9663596415E-05      50    3    1        -0.5606182908E-04      0.8497892304E-04
          0                 5           1            64    1     1      -0.6726178199E-06      50    3    1         0.3941027677E-05      0.5987498687E-05

    ------------------------------------------------
       NWT REQUIRED            5 OUTER ITERATIONS 
       AND A TOTAL OF          8 INNER ITERATIONS.
    ------------------------------------------------

 NO OUTPUT CONTROL FOR STRESS PERIOD   15   TIME STEP    1
 
 WELLS WITH REDUCED PUMPING FOR STRESS PERIOD    15 TIME STEP     1
   LAY   ROW   COL         APPL.Q          ACT.Q        GW-HEAD       CELL-BOT
     1     3    50  -0.132997E+01  -0.650428E+00   0.551827E-03   0.000000E+00
     1     5    55  -0.132997E+01  -0.582749E+00   0.509140E-03   0.000000E+00
 
 
 SOLVING FOR HEAD 
                                                   Max.-Head-Change                         Max.-Flux-Residual
  Residual-Control   Outer-Iter.   Inner-Iter.     Column Row Layer    Maximum-Head-Change  Column Row Layer    Maximum-Flux-Residual          L2-NORM 
          0                 1           2            65    1     1      -0.1543361775E-01      65    1    1        -0.2923361540E-02      0.5037653994E-01
          0                 2           2            65    1     1       0.1506061904E-02      65    1    1         0.2923339173E-03      0.4903687002E-02
          0                 3           2            64    1     1      -0.1333375350E-03      65    1    1        -0.2631019171E-04      0.4501482106E-03
          0                 4           1            64    1     1       0.1054939826E-04      65    1    1         0.2107445377E-05      0.3683846368E-04
          0                 5           1            64    1     1      -0.7339982250E-06      65    1    1        -0.1481513738E-06      0.2627025012E-05

    ------------------------------------------------
       NWT REQUIRED            5 OUTER ITERATIONS 
       AND A TOTAL OF          8 INNER ITERATIONS.
    ------------------------------------------------

 NO OUTPUT CONTROL FOR STRESS PERIOD   15   TIME STEP    2
 
 WELLS WITH REDUCED PUMPING FOR STRESS PERIOD    15 TIME STEP     2
   LAY   ROW   COL         APPL.Q          ACT.Q        GW-HEAD       CELL-BOT
     1     3    50  -0.132991E+01  -0.649924E+00   0.551560E-03   0.000000E+00
     1     5    55  -0.132991E+01  -0.582228E+00   0.508862E-03   0.000000E+00
 
 
 SOLVING FOR HEAD 
                                                   Max.-Head-Change                         Max.-Flux-Residual
  Residual-Control   Outer-Iter.   Inner-Iter.     Column Row Layer    Maximum-Head-Change  Column Row Layer    Maximum-Flux-Residual          L2-NORM 
          0                 1           2            65    1     1      -0.1694391785E-01      65    1    1        -0.2918337143E-02      0.5031721043E-01
          0                 2           2            65    1     1       0.1649810274E-02      65    1    1         0.2918310878E-03      0.4896631557E-02
          0                 3           2            65    1     1      -0.1457407270E-03      65    1    1        -0.2626496911E-04      0.4501052922E-03
          0                 4           1            65    1     1       0.1151428998E-04      65    1    1         0.2103822659E-05      0.3692581465E-04
          0                 5           1            64    1     1      -0.8006722851E-06      65    1    1        -0.1478967064E-06      0.2639455707E-05

    ------------------------------------------------
       NWT REQUIRED            5 OUTER ITERATIONS 
       AND A TOTAL OF          8 INNER ITERATIONS.
    ------------------------------------------------

 NO OUTPUT CONTROL FOR STRESS PERIOD   15   TIME STEP    3
 
 WELLS WITH REDUCED PUMPING FOR STRESS PERIOD    15 TIME STEP     3
   LAY   ROW   COL         APPL.Q          ACT.Q        GW-HEAD       CELL-BOT
     1     3    50  -0.133011E+01  -0.649370E+00   0.551195E-03   0.000000E+00
     1     5    55  -0.133011E+01  -0.581657E+00   0.508494E-03   0.000000E+00
 
 
 SOLVING FOR HEAD 
                                                   Max.-Head-Change                         Max.-Flux-Residual
  Residual-Control   Outer-Iter.   Inner-Iter.     Column Row Layer    Maximum-Head-Change  Column Row Layer    Maximum-Flux-Residual          L2-NORM 
          0                 1           2            66    1     1      -0.1861185078E-01      65    1    1        -0.2913245139E-02      0.5026020325E-01
          0                 2           2            65    1     1       0.1807024180E-02      65    1    1         0.2913215047E-03      0.4890673705E-02
          0                 3           2            65    1     1      -0.1593458187E-03      65    1    1        -0.2621914443E-04      0.4501765647E-03
          0                 4           1            65    1     1       0.1257451654E-04      65    1    1         0.2100151651E-05      0.3702658082E-04
          0                 5           1            65    1     1      -0.8736742240E-06      69    4    1         0.1481810088E-06      0.2653418015E-05

    ------------------------------------------------
       NWT REQUIRED            5 OUTER ITERATIONS 
       AND A TOTAL OF          8 INNER ITERATIONS.
    ------------------------------------------------

 NO OUTPUT CONTROL FOR STRESS PERIOD   15   TIME STEP    4
 
 WELLS WITH REDUCED PUMPING FOR STRESS PERIOD    15 TIME STEP     4
   LAY   ROW   COL         APPL.Q          ACT.Q        GW-HEAD       CELL-BOT
     1     3    50  -0.132993E+01  -0.648755E+00   0.550899E-03   0.000000E+00
     1     5    55  -0.132993E+01  -0.581037E+00   0.508190E-03   0.000000E+00
 
 
 SOLVING FOR HEAD 
                                                   Max.-Head-Change                         Max.-Flux-Residual
  Residual-Control   Outer-Iter.   Inner-Iter.     Column Row Layer    Maximum-Head-Change  Column Row Layer    Maximum-Flux-Residual          L2-NORM 
          0                 1           2            66    1     1      -0.2044530888E-01      66    1    1        -0.2909989313E-02      0.5019276475E-01
          0                 2           2            66    1     1       0.1979041299E-02      66    1    1         0.2909960251E-03      0.4885076937E-02
          0                 3           2            65    1     1      -0.1741647344E-03      66    1    1        -0.2618989247E-04      0.4503378019E-03
          0                 4           1            65    1     1       0.1372520974E-04      66    1    1         0.2097808023E-05      0.3713727752E-04
          0                 5           1            65    1     1      -0.9528414905E-06      69    4    1         0.1562526304E-06      0.2668488010E-05

    ------------------------------------------------
       NWT REQUIRED            5 OUTER ITERATIONS 
       AND A TOTAL OF          8 INNER ITERATIONS.
    ------------------------------------------------

 NO OUTPUT CONTROL FOR STRESS PERIOD   15   TIME STEP    5
 
 WELLS WITH REDUCED PUMPING FOR STRESS PERIOD    15 TIME STEP     5
   LAY   ROW   COL         APPL.Q          ACT.Q        GW-HEAD       CELL-BOT
     1     3    50  -0.133009E+01  -0.648082E+00   0.550477E-03   0.000000E+00
     1     5    55  -0.133009E+01  -0.580353E+00   0.507767E-03   0.000000E+00
 
 
 SOLVING FOR HEAD 
                                                   Max.-Head-Change                         Max.-Flux-Residual
  Residual-Control   Outer-Iter.   Inner-Iter.     Column Row Layer    Maximum-Head-Change  Column Row Layer    Maximum-Flux-Residual          L2-NORM 
          0                 1           2            66    1     1      -0.2245769940E-01      66    1    1        -0.2906734774E-02      0.5011392470E-01
          0                 2           2            66    1     1       0.2167843401E-02      66    1    1         0.2906699887E-03      0.4878140445E-02
          0                 3           2            65    1     1      -0.1902969761E-03      66    1    1        -0.2616060307E-04      0.4503692964E-03
          0                 4           1            65    1     1       0.1497282519E-04      66    1    1         0.2095461282E-05      0.3724721387E-04
          0                 5           1            65    1     1      -0.1038409238E-05      69    4    1         0.1643536152E-06      0.2684421202E-05
          0                 6           1            65    1     1       0.6223371866E-07      69    4    1        -0.1068154099E-07      0.1653012357E-06

    ------------------------------------------------
       NWT REQUIRED            6 OUTER ITERATIONS 
       AND A TOTAL OF          9 INNER ITERATIONS.
    ------------------------------------------------

 NO OUTPUT CONTROL FOR STRESS PERIOD   15   TIME STEP    6
 
 WELLS WITH REDUCED PUMPING FOR STRESS PERIOD    15 TIME STEP     6
   LAY   ROW   COL         APPL.Q          ACT.Q        GW-HEAD       CELL-BOT
     1     3    50  -0.132992E+01  -0.647350E+00   0.550111E-03   0.000000E+00
     1     5    55  -0.132992E+01  -0.579610E+00   0.507392E-03   0.000000E+00
 
 
 SOLVING FOR HEAD 
                                                   Max.-Head-Change                         Max.-Flux-Residual
  Residual-Control   Outer-Iter.   Inner-Iter.     Column Row Layer    Maximum-Head-Change  Column Row Layer    Maximum-Flux-Residual          L2-NORM 
          0                 1           2            66    1     1      -0.2466586856E-01      66    1    1        -0.2903308002E-02      0.5003192775E-01
          0                 2           2            66    1     1       0.2374049863E-02      66    1    1         0.2903266091E-03      0.4869764813E-02
          0                 3           2            65    1     1      -0.2078384719E-03      66    1    1        -0.2612976267E-04      0.4502842203E-03
          0                 4           1            65    1     1       0.1632339646E-04      66    1    1         0.2092990163E-05      0.3734715844E-04
          0                 5           1            65    1     1      -0.1130704150E-05      69    4    1         0.1724455512E-06      0.2699914360E-05
          0                 6           1            65    1     1       0.6771765644E-07      69    4    1        -0.1130290705E-07      0.1666948778E-06

    ------------------------------------------------
       NWT REQUIRED            6 OUTER ITERATIONS 
       AND A TOTAL OF          9 INNER ITERATIONS.
    ------------------------------------------------

 NO OUTPUT CONTROL FOR STRESS PERIOD   15   TIME STEP    7
 
 WELLS WITH REDUCED PUMPING FOR STRESS PERIOD    15 TIME STEP     7
   LAY   ROW   COL         APPL.Q          ACT.Q        GW-HEAD       CELL-BOT
     1     3    50  -0.133004E+01  -0.646548E+00   0.549629E-03   0.000000E+00
     1     5    55  -0.133004E+01  -0.578804E+00   0.506912E-03   0.000000E+00
 
 
 SOLVING FOR HEAD 
                                                   Max.-Head-Change                         Max.-Flux-Residual
  Residual-Control   Outer-Iter.   Inner-Iter.     Column Row Layer    Maximum-Head-Change  Column Row Layer    Maximum-Flux-Residual          L2-NORM 
          0                 1           2            66    1     1      -0.2708818387E-01      66    1    1        -0.2899653772E-02      0.4994409874E-01
          0                 2           2            66    1     1       0.2599199909E-02      66    1    1         0.2899603470E-03      0.4861340269E-02
          0                 3           2            65    1     1      -0.2269009075E-03      66    1    1        -0.2609687406E-04      0.4501239743E-03
          0                 4           1            65    1     1       0.1778389642E-04      66    4    1        -0.2138141031E-05      0.3744292440E-04
          0                 5           1            65    1     1      -0.1230095168E-05      69    4    1         0.1804889163E-06      0.2715748784E-05
          0                 6           1            65    1     1       0.7360506093E-07      69    4    1        -0.1193161303E-07      0.1681637108E-06

    ------------------------------------------------
       NWT REQUIRED            6 OUTER ITERATIONS 
       AND A TOTAL OF          9 INNER ITERATIONS.
    ------------------------------------------------

 NO OUTPUT CONTROL FOR STRESS PERIOD   15   TIME STEP    8
 
 WELLS WITH REDUCED PUMPING FOR STRESS PERIOD    15 TIME STEP     8
   LAY   ROW   COL         APPL.Q          ACT.Q        GW-HEAD       CELL-BOT
     1     3    50  -0.133006E+01  -0.645680E+00   0.549137E-03   0.000000E+00
     1     5    55  -0.133006E+01  -0.577926E+00   0.506415E-03   0.000000E+00
 
 
 SOLVING FOR HEAD 
                                                   Max.-Head-Change                         Max.-Flux-Residual
  Residual-Control   Outer-Iter.   Inner-Iter.     Column Row Layer    Maximum-Head-Change  Column Row Layer    Maximum-Flux-Residual          L2-NORM 
          0                 1           2            66    1     1      -0.2974467705E-01      66    1    1        -0.2895720722E-02      0.4985551926E-01
          0                 2           2            66    1     1       0.2844977921E-02      66    1    1         0.2895660486E-03      0.4851731826E-02
          0                 3           2            65    1     1      -0.2476016992E-03      66    1    1        -0.2606147478E-04      0.4498453924E-03
          0                 4           1            65    1     1       0.1936162271E-04      66    4    1        -0.2214878455E-05      0.3753216647E-04
          0                 5           1            65    1     1      -0.1336959655E-05      69    4    1         0.1879757132E-06      0.2731594972E-05
          0                 6           1            65    1     1       0.7991187576E-07      69    4    1        -0.1254909598E-07      0.1696769338E-06

    ------------------------------------------------
       NWT REQUIRED            6 OUTER ITERATIONS 
       AND A TOTAL OF          9 INNER ITERATIONS.
    ------------------------------------------------

 NO OUTPUT CONTROL FOR STRESS PERIOD   15   TIME STEP    9
 
 WELLS WITH REDUCED PUMPING FOR STRESS PERIOD    15 TIME STEP     9
   LAY   ROW   COL         APPL.Q          ACT.Q        GW-HEAD       CELL-BOT
     1     3    50  -0.132994E+01  -0.644737E+00   0.548638E-03   0.000000E+00
     1     5    55  -0.132994E+01  -0.576969E+00   0.505905E-03   0.000000E+00
 
 
 SOLVING FOR HEAD 
                                                   Max.-Head-Change                         Max.-Flux-Residual
  Residual-Control   Outer-Iter.   Inner-Iter.     Column Row Layer    Maximum-Head-Change  Column Row Layer    Maximum-Flux-Residual          L2-NORM 
          0                 1           2            66    1     1      -0.3265730403E-01      66    1    1        -0.2891462128E-02      0.4976106404E-01
          0                 2           2            66    1     1       0.3113223718E-02      66    1    1         0.2891390283E-03      0.4842936857E-02
          0                 3           2            66    1     1      -0.2700738655E-03      66    1    1        -0.2602314460E-04      0.4496596179E-03
          0                 4           1            65    1     1       0.2106458275E-04      66    4    1        -0.2289387439E-05      0.3762823521E-04
          0                 5           1            65    1     1      -0.1451699182E-05      68    4    1         0.1942727721E-06      0.2748127755E-05
          0                 6           1            65    1     1       0.8665406694E-07      68    4    1        -0.1302031016E-07      0.1712668852E-06

    ------------------------------------------------
       NWT REQUIRED            6 OUTER ITERATIONS 
       AND A TOTAL OF          9 INNER ITERATIONS.
    ------------------------------------------------

 NO OUTPUT CONTROL FOR STRESS PERIOD   15   TIME STEP   10
 
 WELLS WITH REDUCED PUMPING FOR STRESS PERIOD    15 TIME STEP    10
   LAY   ROW   COL         APPL.Q          ACT.Q        GW-HEAD       CELL-BOT
     1     3    50  -0.133003E+01  -0.643711E+00   0.548038E-03   0.000000E+00
     1     5    55  -0.133003E+01  -0.575924E+00   0.505299E-03   0.000000E+00
 
 
 SOLVING FOR HEAD 
                                                   Max.-Head-Change                         Max.-Flux-Residual
  Residual-Control   Outer-Iter.   Inner-Iter.     Column Row Layer    Maximum-Head-Change  Column Row Layer    Maximum-Flux-Residual          L2-NORM 
          0                 1           2            66    1     1      -0.3584983020E-01      66    1    1        -0.2886846892E-02      0.4964783630E-01
          0                 2           2            66    1     1       0.3405928482E-02      66    1    1         0.2886761477E-03      0.4833346047E-02
          0                 3           2            66    1     1      -0.2945067578E-03      66    1    1        -0.2598160278E-04      0.4493244032E-03
          0                 4           1            65    1     1       0.2290153722E-04      66    4    1        -0.2361510555E-05      0.3770602102E-04
          0                 5           1            65    1     1      -0.1574739879E-05      68    4    1         0.2030889590E-06      0.2763430411E-05
          0                 6           1            65    1     1       0.9384717482E-07      68    4    1        -0.1374449887E-07      0.1728201273E-06

    ------------------------------------------------
       NWT REQUIRED            6 OUTER ITERATIONS 
       AND A TOTAL OF          9 INNER ITERATIONS.
    ------------------------------------------------

 NO OUTPUT CONTROL FOR STRESS PERIOD   15   TIME STEP   11
 
 WELLS WITH REDUCED PUMPING FOR STRESS PERIOD    15 TIME STEP    11
   LAY   ROW   COL         APPL.Q          ACT.Q        GW-HEAD       CELL-BOT
     1     3    50  -0.133004E+01  -0.642592E+00   0.547406E-03   0.000000E+00
     1     5    55  -0.133004E+01  -0.574785E+00   0.504657E-03   0.000000E+00
 
 
 SOLVING FOR HEAD 
                                                   Max.-Head-Change                         Max.-Flux-Residual
  Residual-Control   Outer-Iter.   Inner-Iter.     Column Row Layer    Maximum-Head-Change  Column Row Layer    Maximum-Flux-Residual          L2-NORM 
          0                 1           2            66    1     1      -0.3934785335E-01      66    1    1        -0.2881833537E-02      0.4952070471E-01
          0                 2           2            66    1     1       0.3725225179E-02      66    1    1         0.2881732213E-03      0.4821163254E-02
          0                 3           2            66    1     1      -0.3210022592E-03      66    1    1        -0.2593647448E-04      0.4487751923E-03
          0                 4           1            65    1     1       0.2488072909E-04      66    4    1        -0.2430714366E-05      0.3777314843E-04
          0                 5           1            65    1     1      -0.1706465607E-05      68    4    1         0.2106724963E-06      0.2778401843E-05
          0                 6           1            64    1     1       0.1015047907E-06      68    4    1        -0.1437731711E-07      0.1743799994E-06

    ------------------------------------------------
       NWT REQUIRED            6 OUTER ITERATIONS 
       AND A TOTAL OF          9 INNER ITERATIONS.
    ------------------------------------------------

 NO OUTPUT CONTROL FOR STRESS PERIOD   15   TIME STEP   12
 
 WELLS WITH REDUCED PUMPING FOR STRESS PERIOD    15 TIME STEP    12
   LAY   ROW   COL         APPL.Q          ACT.Q        GW-HEAD       CELL-BOT
     1     3    50  -0.132995E+01  -0.641373E+00   0.546747E-03   0.000000E+00
     1     5    55  -0.132995E+01  -0.573541E+00   0.503982E-03   0.000000E+00
 
 
 SOLVING FOR HEAD 
                                                   Max.-Head-Change                         Max.-Flux-Residual
  Residual-Control   Outer-Iter.   Inner-Iter.     Column Row Layer    Maximum-Head-Change  Column Row Layer    Maximum-Flux-Residual          L2-NORM 
          0                 1           2            66    1     1      -0.4317893408E-01      66    1    1        -0.2876361521E-02      0.4939391421E-01
          0                 2           2            66    1     1       0.4073449880E-02      66    1    1         0.2876241565E-03      0.4807428197E-02
          0                 3           2            66    1     1      -0.3497428518E-03      66    1    1        -0.2588721312E-04      0.4480246003E-03
          0                 4           1            65    1     1       0.2701235612E-04      66    4    1        -0.2496900153E-05      0.3782418707E-04
          0                 5           1            65    1     1      -0.1847353845E-05      68    4    1         0.2180328309E-06      0.2792463685E-05
          0                 6           1            64    1     1       0.1096524542E-06      68    4    1        -0.1500150582E-07      0.1759158396E-06

    ------------------------------------------------
       NWT REQUIRED            6 OUTER ITERATIONS 
       AND A TOTAL OF          9 INNER ITERATIONS.
    ------------------------------------------------

 NO OUTPUT CONTROL FOR STRESS PERIOD   15   TIME STEP   13
 
 WELLS WITH REDUCED PUMPING FOR STRESS PERIOD    15 TIME STEP    13
   LAY   ROW   COL         APPL.Q          ACT.Q        GW-HEAD       CELL-BOT
     1     3    50  -0.132996E+01  -0.640042E+00   0.545996E-03   0.000000E+00
     1     5    55  -0.132996E+01  -0.572181E+00   0.503215E-03   0.000000E+00
 
 
 SOLVING FOR HEAD 
                                                   Max.-Head-Change                         Max.-Flux-Residual
  Residual-Control   Outer-Iter.   Inner-Iter.     Column Row Layer    Maximum-Head-Change  Column Row Layer    Maximum-Flux-Residual          L2-NORM 
          0                 1           2            66    1     1      -0.4737278124E-01      66    1    1        -0.2870359977E-02      0.4925540874E-01
          0                 2           2            66    1     1       0.4453113359E-02      66    1    1         0.2870218262E-03      0.4795107910E-02
          0                 3           2            66    1     1      -0.3809130523E-03      66    1    1        -0.2583317903E-04      0.4474801738E-03
          0                 4           1            65    1     1       0.2930724340E-04      66    4    1        -0.2559843676E-05      0.3788989253E-04
          0                 5           1            65    1     1      -0.1997906490E-05      68    4    1         0.2251407043E-06      0.2807234537E-05
          0                 6           1            64    1     1       0.1182900682E-06      68    4    1        -0.1561400254E-07      0.1774920088E-06

    ------------------------------------------------
       NWT REQUIRED            6 OUTER ITERATIONS 
       AND A TOTAL OF          9 INNER ITERATIONS.
    ------------------------------------------------

 NO OUTPUT CONTROL FOR STRESS PERIOD   15   TIME STEP   14
 
 WELLS WITH REDUCED PUMPING FOR STRESS PERIOD    15 TIME STEP    14
   LAY   ROW   COL         APPL.Q          ACT.Q        GW-HEAD       CELL-BOT
     1     3    50  -0.133003E+01  -0.638595E+00   0.545165E-03   0.000000E+00
     1     5    55  -0.133003E+01  -0.570711E+00   0.502374E-03   0.000000E+00
 
 
 SOLVING FOR HEAD 
                                                   Max.-Head-Change                         Max.-Flux-Residual
  Residual-Control   Outer-Iter.   Inner-Iter.     Column Row Layer    Maximum-Head-Change  Column Row Layer    Maximum-Flux-Residual          L2-NORM 
          0                 1           2            67    1     1      -0.5197194786E-01      66    1    1        -0.2863755225E-02      0.4909227386E-01
          0                 2           2            66    1     1       0.4866928643E-02      66    1    1         0.2863588158E-03      0.4780916203E-02
          0                 3           2            66    1     1      -0.4147127736E-03      66    1    1        -0.2577370645E-04      0.4467522669E-03
          0                 4           1            65    1     1       0.3177703105E-04      66    4    1        -0.2619333323E-05      0.3794751296E-04
          0                 5           1            65    1     1      -0.2158649789E-05      68    4    1         0.2319442824E-06      0.2821726394E-05
          0                 6           1            64    1     1       0.1274275200E-06      68    4    1        -0.1620886181E-07      0.1790644531E-06

    ------------------------------------------------
       NWT REQUIRED            6 OUTER ITERATIONS 
       AND A TOTAL OF          9 INNER ITERATIONS.
    ------------------------------------------------

 NO OUTPUT CONTROL FOR STRESS PERIOD   15   TIME STEP   15
 
 WELLS WITH REDUCED PUMPING FOR STRESS PERIOD    15 TIME STEP    15
   LAY   ROW   COL         APPL.Q          ACT.Q        GW-HEAD       CELL-BOT
     1     3    50  -0.133003E+01  -0.637034E+00   0.544288E-03   0.000000E+00
     1     5    55  -0.133003E+01  -0.569093E+00   0.501466E-03   0.000000E+00
 
 
 SOLVING FOR HEAD 
                                                   Max.-Head-Change                         Max.-Flux-Residual
  Residual-Control   Outer-Iter.   Inner-Iter.     Column Row Layer    Maximum-Head-Change  Column Row Layer    Maximum-Flux-Residual          L2-NORM 
          0                 1           2            67    1     1      -0.5701014135E-01      67    1    1        -0.2857105587E-02      0.4892653878E-01
          0                 2           2            66    1     1       0.5323505746E-02      67    1    1         0.2856924012E-03      0.4762319202E-02
          0                 3           2            66    1     1      -0.4520724933E-03      67    1    1        -0.2571389757E-04      0.4454084695E-03
          0                 4           1            66    1     1       0.3449480912E-04      65    4    1        -0.2640217092E-05      0.3794887772E-04
          0                 5           1            65    1     1      -0.2331568833E-05      68    4    1         0.2385300082E-06      0.2832186307E-05
          0                 6           1            65    1     1       0.1371314144E-06      68    4    1        -0.1679264194E-07      0.1804177598E-06

    ------------------------------------------------
       NWT REQUIRED            6 OUTER ITERATIONS 
       AND A TOTAL OF          9 INNER ITERATIONS.
    ------------------------------------------------

 NO OUTPUT CONTROL FOR STRESS PERIOD   15   TIME STEP   16
 
 WELLS WITH REDUCED PUMPING FOR STRESS PERIOD    15 TIME STEP    16
   LAY   ROW   COL         APPL.Q          ACT.Q        GW-HEAD       CELL-BOT
     1     3    50  -0.133003E+01  -0.635322E+00   0.543326E-03   0.000000E+00
     1     5    55  -0.133003E+01  -0.567354E+00   0.500489E-03   0.000000E+00
 
 
 SOLVING FOR HEAD 
                                                   Max.-Head-Change                         Max.-Flux-Residual
  Residual-Control   Outer-Iter.   Inner-Iter.     Column Row Layer    Maximum-Head-Change  Column Row Layer    Maximum-Flux-Residual          L2-NORM 
          0                 1           2            67    1     1      -0.6252623110E-01      67    1    1        -0.2849930618E-02      0.4875132196E-01
          0                 2           2            66    1     1       0.5817257762E-02      67    1    1         0.2849722318E-03      0.4746370175E-02
          0                 3           2            66    1     1      -0.4920403266E-03      67    1    1        -0.2564932376E-04      0.4444780478E-03
          0                 4           1            66    1     1       0.3738113545E-04      65    4    1        -0.2693218111E-05      0.3798717657E-04
          0                 5           1            65    1     1      -0.2514926554E-05      68    4    1         0.2441151832E-06      0.2843820120E-05
          0                 6           1            65    1     1       0.1473585729E-06      68    4    1        -0.1727186572E-07      0.1817666794E-06

    ------------------------------------------------
       NWT REQUIRED            6 OUTER ITERATIONS 
       AND A TOTAL OF          9 INNER ITERATIONS.
    ------------------------------------------------

 NO OUTPUT CONTROL FOR STRESS PERIOD   15   TIME STEP   17
 
 WELLS WITH REDUCED PUMPING FOR STRESS PERIOD    15 TIME STEP    17
   LAY   ROW   COL         APPL.Q          ACT.Q        GW-HEAD       CELL-BOT
     1     3    50  -0.132998E+01  -0.633484E+00   0.542305E-03   0.000000E+00
     1     5    55  -0.132998E+01  -0.565479E+00   0.499446E-03   0.000000E+00
 
 
 SOLVING FOR HEAD 
                                                   Max.-Head-Change                         Max.-Flux-Residual
  Residual-Control   Outer-Iter.   Inner-Iter.     Column Row Layer    Maximum-Head-Change  Column Row Layer    Maximum-Flux-Residual          L2-NORM 
          0                 1           2            67    1     1      -0.6855008496E-01      66    3    1        -0.2843428604E-02      0.4855195331E-01
          0                 2           2            67    1     1       0.6355113383E-02      66    3    1         0.2842886835E-03      0.4728063142E-02
          0                 3           2            66    1     1      -0.5353049315E-03      66    3    1        -0.2558946433E-04      0.4432762792E-03
          0                 4           1            66    1     1       0.4049472186E-04      65    4    1        -0.2740716539E-05      0.3799164229E-04
          0                 5           1            65    1     1      -0.2710716207E-05      68    4    1         0.2497959564E-06      0.2853404532E-05
          0                 6           1            65    1     1       0.1581681699E-06      68    4    1        -0.1778303904E-07      0.1830002663E-06

    ------------------------------------------------
       NWT REQUIRED            6 OUTER ITERATIONS 
       AND A TOTAL OF          9 INNER ITERATIONS.
    ------------------------------------------------

 NO OUTPUT CONTROL FOR STRESS PERIOD   15   TIME STEP   18
 
 WELLS WITH REDUCED PUMPING FOR STRESS PERIOD    15 TIME STEP    18
   LAY   ROW   COL         APPL.Q          ACT.Q        GW-HEAD       CELL-BOT
     1     3    50  -0.132998E+01  -0.631513E+00   0.541199E-03   0.000000E+00
     1     5    55  -0.132998E+01  -0.563456E+00   0.498310E-03   0.000000E+00
 
 
 SOLVING FOR HEAD 
                                                   Max.-Head-Change                         Max.-Flux-Residual
  Residual-Control   Outer-Iter.   Inner-Iter.     Column Row Layer    Maximum-Head-Change  Column Row Layer    Maximum-Flux-Residual          L2-NORM 
          0                 1           2            67    1     1      -0.7512311636E-01      67    1    1        -0.2833740801E-02      0.4834694178E-01
          0                 2           2            67    1     1       0.6941294672E-02      67    1    1         0.2833451726E-03      0.4706043337E-02
          0                 3           2            67    1     1      -0.5822256303E-03      67    1    1        -0.2550347045E-04      0.4416083328E-03
          0                 4           1            66    1     1       0.4383884594E-04      65    4    1        -0.2784155372E-05      0.3795217229E-04
          0                 5           1            65    1     1      -0.2918914588E-05      68    4    1         0.2551984704E-06      0.2858287625E-05
          0                 6           1            65    1     1       0.1695273846E-06      68    4    1        -0.1828373541E-07      0.1838851603E-06

    ------------------------------------------------
       NWT REQUIRED            6 OUTER ITERATIONS 
       AND A TOTAL OF          9 INNER ITERATIONS.
    ------------------------------------------------

 NO OUTPUT CONTROL FOR STRESS PERIOD   15   TIME STEP   19
 
 WELLS WITH REDUCED PUMPING FOR STRESS PERIOD    15 TIME STEP    19
   LAY   ROW   COL         APPL.Q          ACT.Q        GW-HEAD       CELL-BOT
     1     3    50  -0.132997E+01  -0.629393E+00   0.540009E-03   0.000000E+00
     1     5    55  -0.132997E+01  -0.561275E+00   0.497085E-03   0.000000E+00
 
 
 SOLVING FOR HEAD 
                                                   Max.-Head-Change                         Max.-Flux-Residual
  Residual-Control   Outer-Iter.   Inner-Iter.     Column Row Layer    Maximum-Head-Change  Column Row Layer    Maximum-Flux-Residual          L2-NORM 
          0                 1           2            67    1     1      -0.8229770005E-01      67    1    1        -0.2823942596E-02      0.4807332650E-01
          0                 2           2            67    1     1       0.7583863194E-02      67    1    1         0.2823607731E-03      0.4688415196E-02
          0                 3           2            67    1     1      -0.6336436449E-03      67    1    1        -0.2541519718E-04      0.4413241340E-03
          0                 4           1            66    1     1       0.4745400280E-04      65    4    1        -0.2823438841E-05      0.3808932538E-04
          0                 5           1            66    1     1      -0.3142045318E-05      65    4    1         0.2549224032E-06      0.2877278027E-05
          0                 6           1            65    1     1       0.1815024334E-06      68    4    1        -0.1825715579E-07      0.1855971445E-06

    ------------------------------------------------
       NWT REQUIRED            6 OUTER ITERATIONS 
       AND A TOTAL OF          9 INNER ITERATIONS.
    ------------------------------------------------

 NO OUTPUT CONTROL FOR STRESS PERIOD   15   TIME STEP   20
 
 WELLS WITH REDUCED PUMPING FOR STRESS PERIOD    15 TIME STEP    20
   LAY   ROW   COL         APPL.Q          ACT.Q        GW-HEAD       CELL-BOT
     1     3    50  -0.133002E+01  -0.627116E+00   0.538718E-03   0.000000E+00
     1     5    55  -0.133002E+01  -0.558929E+00   0.495754E-03   0.000000E+00
 
 
 SOLVING FOR HEAD 
                                                   Max.-Head-Change                         Max.-Flux-Residual
  Residual-Control   Outer-Iter.   Inner-Iter.     Column Row Layer    Maximum-Head-Change  Column Row Layer    Maximum-Flux-Residual          L2-NORM 
          0                 1           2            67    1     1      -0.9013471407E-01      67    1    1        -0.2813022582E-02      0.4756401242E-01
          0                 2           2            67    1     1       0.8281426315E-02      67    1    1         0.2812643065E-03      0.4673077919E-02
          0                 3           2            68    7     1      -0.6928009950E-03      67    1    1        -0.2531687773E-04      0.4423642364E-03
          0                 4           1            68    1     1       0.5154736549E-04      65    4    1        -0.2858736655E-05      0.3833954460E-04
          0                 5           1            67    1     1      -0.3382062434E-05      67    4    1         0.2597334809E-06      0.2901076695E-05
          0                 6           1            65    1     1       0.1941254948E-06      66    4    1        -0.1868761146E-07      0.1873498282E-06

    ------------------------------------------------
       NWT REQUIRED            6 OUTER ITERATIONS 
       AND A TOTAL OF          9 INNER ITERATIONS.
    ------------------------------------------------

 NO OUTPUT CONTROL FOR STRESS PERIOD   15   TIME STEP   21
 
 WELLS WITH REDUCED PUMPING FOR STRESS PERIOD    15 TIME STEP    21
   LAY   ROW   COL         APPL.Q          ACT.Q        GW-HEAD       CELL-BOT
     1     3    50  -0.133000E+01  -0.624677E+00   0.537350E-03   0.000000E+00
     1     5    55  -0.133000E+01  -0.556409E+00   0.494339E-03   0.000000E+00
 
 
 SOLVING FOR HEAD 
                                                   Max.-Head-Change                         Max.-Flux-Residual
  Residual-Control   Outer-Iter.   Inner-Iter.     Column Row Layer    Maximum-Head-Change  Column Row Layer    Maximum-Flux-Residual          L2-NORM 
          0                 1           2            67    1     1      -0.9866036682E-01      67    3    1        -0.2801627970E-02      0.4678665876E-01
          0                 2           2            68    7     1       0.9039587198E-02      67    1    1         0.2801116563E-03      0.4581971895E-02
          0                 3           2            68    7     1      -0.7534108995E-03      67    1    1        -0.2521355579E-04      0.4341260859E-03
          0                 4           1            68    1     1       0.5581680763E-04      65    4    1        -0.2887343955E-05      0.3776239003E-04
          0                 5           1            67    1     1      -0.3638167401E-05      66    4    1         0.2630716001E-06      0.2864287306E-05
          0                 6           1            65    1     1       0.2073232954E-06      66    4    1        -0.1909072012E-07      0.1854447145E-06

    ------------------------------------------------
       NWT REQUIRED            6 OUTER ITERATIONS 
       AND A TOTAL OF          9 INNER ITERATIONS.
    ------------------------------------------------

 NO OUTPUT CONTROL FOR STRESS PERIOD   15   TIME STEP   22
 
 WELLS WITH REDUCED PUMPING FOR STRESS PERIOD    15 TIME STEP    22
   LAY   ROW   COL         APPL.Q          ACT.Q        GW-HEAD       CELL-BOT
     1     3    50  -0.132999E+01  -0.622074E+00   0.535888E-03   0.000000E+00
     1     5    55  -0.132999E+01  -0.553714E+00   0.492824E-03   0.000000E+00
 
 
 SOLVING FOR HEAD 
                                                   Max.-Head-Change                         Max.-Flux-Residual
  Residual-Control   Outer-Iter.   Inner-Iter.     Column Row Layer    Maximum-Head-Change  Column Row Layer    Maximum-Flux-Residual          L2-NORM 
          0                 1           3            67    1     1      -0.1079245989E+00      67    1    1        -0.2788473883E-02      0.4621809705E-01
          0                 2           2            68    1     1       0.9858905852E-02      67    1    1         0.2787954079E-03      0.4521782278E-02
          0                 3           2            68    7     1      -0.8182913211E-03      67    1    1        -0.2509554660E-04      0.4289773315E-03
          0                 4           1            68    1     1       0.6036468075E-04      72    4    1        -0.3048858579E-05      0.3742536371E-04
          0                 5           1            67    1     1      -0.3911228084E-05      72    4    1         0.2825807908E-06      0.2841506019E-05
          0                 6           1            65    1     1       0.2217794987E-06      72    4    1        -0.2047356951E-07      0.1842303399E-06

    ------------------------------------------------
       NWT REQUIRED            6 OUTER ITERATIONS 
       AND A TOTAL OF         10 INNER ITERATIONS.
    ------------------------------------------------

 NO OUTPUT CONTROL FOR STRESS PERIOD   15   TIME STEP   23
 
 WELLS WITH REDUCED PUMPING FOR STRESS PERIOD    15 TIME STEP    23
   LAY   ROW   COL         APPL.Q          ACT.Q        GW-HEAD       CELL-BOT
     1     3    50  -0.132998E+01  -0.619306E+00   0.534334E-03   0.000000E+00
     1     5    55  -0.132998E+01  -0.550839E+00   0.491205E-03   0.000000E+00
 
 
 SOLVING FOR HEAD 
                                                   Max.-Head-Change                         Max.-Flux-Residual
  Residual-Control   Outer-Iter.   Inner-Iter.     Column Row Layer    Maximum-Head-Change  Column Row Layer    Maximum-Flux-Residual          L2-NORM 
          0                 1           3            67    1     1      -0.1177198109E+00      67    1    1        -0.2773649815E-02      0.4569325001E-01
          0                 2           2            67    1     1       0.1071884502E-01      67    1    1         0.2772936690E-03      0.4468461895E-02
          0                 3           2            67    7     1      -0.8832813825E-03      71    4    1         0.2616983558E-04      0.4246398378E-03
          0                 4           1            67    1     1       0.6496050979E-04      71    4    1        -0.3219166537E-05      0.3715356182E-04
          0                 5           1            65    1     1      -0.4189675809E-05      70    4    1         0.2914304069E-06      0.2820715446E-05
          0                 6           1            65    1     1       0.2362846606E-06      70    4    1        -0.2102195573E-07      0.1829783561E-06

    ------------------------------------------------
       NWT REQUIRED            6 OUTER ITERATIONS 
       AND A TOTAL OF         10 INNER ITERATIONS.
    ------------------------------------------------

 NO OUTPUT CONTROL FOR STRESS PERIOD   15   TIME STEP   24
 
 WELLS WITH REDUCED PUMPING FOR STRESS PERIOD    15 TIME STEP    24
   LAY   ROW   COL         APPL.Q          ACT.Q        GW-HEAD       CELL-BOT
     1     3    50  -0.132999E+01  -0.616356E+00   0.532671E-03   0.000000E+00
     1     5    55  -0.132999E+01  -0.547774E+00   0.489473E-03   0.000000E+00
 
 
 SOLVING FOR HEAD 
                                                   Max.-Head-Change                         Max.-Flux-Residual
  Residual-Control   Outer-Iter.   Inner-Iter.     Column Row Layer    Maximum-Head-Change  Column Row Layer    Maximum-Flux-Residual          L2-NORM 
          0                 1           3            66    1     1      -0.1270982521E+00      67    1    1        -0.2751075756E-02      0.4517104544E-01
          0                 2           2            66    1     1       0.1150662945E-01      67    1    1         0.2749481532E-03      0.4418958139E-02
          0                 3           2            65    1     1      -0.9434681439E-03      68    4    1         0.2650689409E-04      0.4207896809E-03
          0                 4           1            65    1     1       0.6924633676E-04      67    4    1        -0.3264843070E-05      0.3692623401E-04
          0                 5           1            65    1     1      -0.4454324770E-05      68    4    1         0.2962968360E-06      0.2800703606E-05
          0                 6           1            65    1     1       0.2495611337E-06      68    4    1        -0.2129232790E-07      0.1816384946E-06

    ------------------------------------------------
       NWT REQUIRED            6 OUTER ITERATIONS 
       AND A TOTAL OF         10 INNER ITERATIONS.
    ------------------------------------------------

 NO OUTPUT CONTROL FOR STRESS PERIOD   15   TIME STEP   25
 
 WELLS WITH REDUCED PUMPING FOR STRESS PERIOD    15 TIME STEP    25
   LAY   ROW   COL         APPL.Q          ACT.Q        GW-HEAD       CELL-BOT
     1     3    50  -0.133001E+01  -0.613302E+00   0.530947E-03   0.000000E+00
     1     5    55  -0.133001E+01  -0.544576E+00   0.487663E-03   0.000000E+00
 
 
 SOLVING FOR HEAD 
                                                   Max.-Head-Change                         Max.-Flux-Residual
  Residual-Control   Outer-Iter.   Inner-Iter.     Column Row Layer    Maximum-Head-Change  Column Row Layer    Maximum-Flux-Residual          L2-NORM 
          0                 1           3            67    1     1      -0.1359693790E+00      66    1    1        -0.2701509603E-02      0.4464758891E-01
          0                 2           2            67    1     1       0.1226913984E-01      66    1    1         0.2699407558E-03      0.4365524707E-02
          0                 3           2            66    7     1      -0.9998425169E-03      66    4    1         0.2720610284E-04      0.4161718324E-03
          0                 4           1            65    1     1       0.7298144534E-04      66    4    1        -0.3331355256E-05      0.3661646373E-04
          0                 5           1            63    1     1      -0.4658844149E-05      66    4    1         0.3024286386E-06      0.2770940447E-05
          0                 6           1            63    1     1       0.2612167950E-06      66    4    1        -0.2169823787E-07      0.1795412781E-06

    ------------------------------------------------
       NWT REQUIRED            6 OUTER ITERATIONS 
       AND A TOTAL OF         10 INNER ITERATIONS.
    ------------------------------------------------

 NO OUTPUT CONTROL FOR STRESS PERIOD   15   TIME STEP   26
 
 WELLS WITH REDUCED PUMPING FOR STRESS PERIOD    15 TIME STEP    26
   LAY   ROW   COL         APPL.Q          ACT.Q        GW-HEAD       CELL-BOT
     1     3    50  -0.133001E+01  -0.610024E+00   0.529103E-03   0.000000E+00
     1     5    55  -0.133001E+01  -0.541133E+00   0.485720E-03   0.000000E+00
 
 
 SOLVING FOR HEAD 
                                                   Max.-Head-Change                         Max.-Flux-Residual
  Residual-Control   Outer-Iter.   Inner-Iter.     Column Row Layer    Maximum-Head-Change  Column Row Layer    Maximum-Flux-Residual          L2-NORM 
          0                 1           3            68    1     1      -0.1478921515E+00      67    1    1        -0.2628045453E-02      0.4411400778E-01
          0                 2           2            68    7     1       0.1329680474E-01      67    1    1         0.2626895834E-03      0.4315859682E-02
          0                 3           2            68    7     1      -0.1077892424E-02      63    4    1         0.2635875934E-04      0.4119647372E-03
          0                 4           1            67    1     1       0.7794016205E-04      63    4    1        -0.3216746583E-05      0.3632978042E-04
          0                 5           1            65    1     1      -0.4884689727E-05      64    4    1         0.2884759578E-06      0.2738466385E-05
          0                 6           1            63    1     1       0.2707022582E-06      66    4    1        -0.2079507055E-07      0.1771002733E-06

    ------------------------------------------------
       NWT REQUIRED            6 OUTER ITERATIONS 
       AND A TOTAL OF         10 INNER ITERATIONS.
    ------------------------------------------------

 NO OUTPUT CONTROL FOR STRESS PERIOD   15   TIME STEP   27
 
 WELLS WITH REDUCED PUMPING FOR STRESS PERIOD    15 TIME STEP    27
   LAY   ROW   COL         APPL.Q          ACT.Q        GW-HEAD       CELL-BOT
     1     3    50  -0.133000E+01  -0.606644E+00   0.527201E-03   0.000000E+00
     1     5    55  -0.133000E+01  -0.537630E+00   0.483740E-03   0.000000E+00
 
 
 SOLVING FOR HEAD 
                                                   Max.-Head-Change                         Max.-Flux-Residual
  Residual-Control   Outer-Iter.   Inner-Iter.     Column Row Layer    Maximum-Head-Change  Column Row Layer    Maximum-Flux-Residual          L2-NORM 
          0                 1           3            68    1     1      -0.1612346120E+00      68    1    1        -0.2599390642E-02      0.4358112038E-01
          0                 2           2            68    7     1       0.1446242950E-01      68    1    1         0.2598415159E-03      0.4260053768E-02
          0                 3           2            68    7     1      -0.1168832428E-02      62    4    1         0.2509646142E-04      0.4067597392E-03
          0                 4           1            68    1     1       0.8403017177E-04      62    4    1        -0.3060308925E-05      0.3593228208E-04
          0                 5           1            67    1     1      -0.5176096239E-05      66    4    1         0.2848262515E-06      0.2692917456E-05
          0                 6           1            65    1     1       0.2807761788E-06      66    4    1        -0.2089847584E-07      0.1736677694E-06

    ------------------------------------------------
       NWT REQUIRED            6 OUTER ITERATIONS 
       AND A TOTAL OF         10 INNER ITERATIONS.
    ------------------------------------------------

 NO OUTPUT CONTROL FOR STRESS PERIOD   15   TIME STEP   28
 
 WELLS WITH REDUCED PUMPING FOR STRESS PERIOD    15 TIME STEP    28
   LAY   ROW   COL         APPL.Q          ACT.Q        GW-HEAD       CELL-BOT
     1     3    50  -0.133000E+01  -0.603278E+00   0.525304E-03   0.000000E+00
     1     5    55  -0.133000E+01  -0.534013E+00   0.481693E-03   0.000000E+00
 
 
 SOLVING FOR HEAD 
                                                   Max.-Head-Change                         Max.-Flux-Residual
  Residual-Control   Outer-Iter.   Inner-Iter.     Column Row Layer    Maximum-Head-Change  Column Row Layer    Maximum-Flux-Residual          L2-NORM 
          0                 1           3            68    1     1      -0.1756914436E+00      68    1    1        -0.2576768784E-02      0.4307737590E-01
          0                 2           3            68    1     1       0.1572640513E-01      68    1    1         0.2575680252E-03      0.4207203323E-02
          0                 3           2            69    7     1      -0.1267488396E-02      68    1    1        -0.2318836260E-04      0.4019293080E-03
          0                 4           1            72    7     1       0.9101660457E-04      66    4    1        -0.3012230790E-05      0.3557179486E-04
          0                 5           1            67    1     1      -0.5496710002E-05      66    4    1         0.2854357959E-06      0.2646287489E-05
          0                 6           1            65    1     1       0.2946354190E-06      66    4    1        -0.2099387864E-07      0.1700757194E-06

    ------------------------------------------------
       NWT REQUIRED            6 OUTER ITERATIONS 
       AND A TOTAL OF         11 INNER ITERATIONS.
    ------------------------------------------------

 NO OUTPUT CONTROL FOR STRESS PERIOD   15   TIME STEP   29
 
 WELLS WITH REDUCED PUMPING FOR STRESS PERIOD    15 TIME STEP    29
   LAY   ROW   COL         APPL.Q          ACT.Q        GW-HEAD       CELL-BOT
     1     3    50  -0.132999E+01  -0.599454E+00   0.523151E-03   0.000000E+00
     1     5    55  -0.132999E+01  -0.529961E+00   0.479400E-03   0.000000E+00
 
 
 SOLVING FOR HEAD 
                                                   Max.-Head-Change                         Max.-Flux-Residual
  Residual-Control   Outer-Iter.   Inner-Iter.     Column Row Layer    Maximum-Head-Change  Column Row Layer    Maximum-Flux-Residual          L2-NORM 
          0                 1           3            69    1     1      -0.1913234818E+00      68    1    1        -0.2552986323E-02      0.4258990850E-01
          0                 2           3            69    1     1       0.1710549427E-01      68    1    1         0.2551759201E-03      0.4156838913E-02
          0                 3           2            72    7     1      -0.1375273107E-02      68    1    1        -0.2297380768E-04      0.3971130297E-03
          0                 4           1            72    7     1       0.9849987358E-04      65    4    1        -0.2954640680E-05      0.3519116147E-04
          0                 5           1            67    1     1      -0.5830459159E-05      70    4    1         0.2825375205E-06      0.2592800340E-05
          0                 6           1            65    1     1       0.3090995232E-06      70    4    1        -0.2085010031E-07      0.1659395446E-06

    ------------------------------------------------
       NWT REQUIRED            6 OUTER ITERATIONS 
       AND A TOTAL OF         11 INNER ITERATIONS.
    ------------------------------------------------

 OUTPUT CONTROL FOR STRESS PERIOD   15   TIME STEP   30
    PRINT HEAD FOR ALL LAYERS
    SAVE HEAD FOR ALL LAYERS
    PRINT BUDGET
    SAVE BUDGET
 
 WELLS WITH REDUCED PUMPING FOR STRESS PERIOD    15 TIME STEP    30
   LAY   ROW   COL         APPL.Q          ACT.Q        GW-HEAD       CELL-BOT
     1     3    50  -0.132999E+01  -0.595400E+00   0.520865E-03   0.000000E+00
     1     5    55  -0.132999E+01  -0.525647E+00   0.476953E-03   0.000000E+00

            WELLS   PERIOD   15   STEP  30
 WELL      1   LAYER   1   ROW     3   COL    50   RATE   -0.595400    
 WELL      2   LAYER   1   ROW     5   COL    55   RATE   -0.525647    
 

  HEAD DEP BOUNDS   PERIOD   15   STEP    30
 BOUNDARY      1   LAYER   1   ROW     1   COL   100   RATE   -1.611535E-02
 BOUNDARY      2   LAYER   1   ROW     2   COL   100   RATE   -1.615900E-02
 BOUNDARY      3   LAYER   1   ROW     3   COL   100   RATE   -1.614813E-02
 BOUNDARY      4   LAYER   1   ROW     4   COL   100   RATE   -1.321502E-02
 BOUNDARY      5   LAYER   1   ROW     5   COL   100   RATE   -1.614813E-02
 BOUNDARY      6   LAYER   1   ROW     6   COL   100   RATE   -1.615900E-02
 BOUNDARY      7   LAYER   1   ROW     7   COL   100   RATE   -1.611535E-02



 STREAM LISTING     PERIOD     15   STEP       30

 LAYER ROW COL. STREAM  RCH.   FLOW INTO    STREAM     FLOW OUT OF   OVRLND.    DIRECT     STREAM      STREAM      STREAM     STREAM  STREAMBED   FLOW TO   CHNG. UNSAT. 
                SEG.NO.  NO.   STRM. RCH.    LOSS       STRM. RCH.   RUNOFF     PRECIP       ET         HEAD        DEPTH      WIDTH  CONDCTNC.   WAT. TAB.

   1    4    1     1     1    6.1800E+00  2.0196E-03   6.1780E+00  0.000E+00  0.000E+00  0.000E+00  1.41732E+02  1.882E+00  4.064E+00  8.478E-04  2.014E-03  1.030E-05
   1    4    2     1     2    6.1780E+00  2.0191E-03   6.1760E+00  0.000E+00  0.000E+00  0.000E+00  1.41432E+02  1.882E+00  4.064E+00  8.477E-04  2.014E-03  1.038E-05
   1    4    3     1     3    6.1760E+00  2.0186E-03   6.1739E+00  0.000E+00  0.000E+00  0.000E+00  1.41131E+02  1.881E+00  4.064E+00  8.476E-04  2.013E-03  1.066E-05
   1    4    4     1     4    6.1739E+00  2.0180E-03   6.1719E+00  0.000E+00  0.000E+00  0.000E+00  1.40831E+02  1.881E+00  4.063E+00  8.475E-04  2.012E-03  1.112E-05
   1    4    5     1     5    6.1719E+00  2.0175E-03   6.1699E+00  0.000E+00  0.000E+00  0.000E+00  1.40531E+02  1.881E+00  4.063E+00  8.474E-04  2.011E-03  1.177E-05
   1    4    6     1     6    6.1699E+00  2.0170E-03   6.1679E+00  0.000E+00  0.000E+00  0.000E+00  1.40231E+02  1.881E+00  4.062E+00  8.473E-04  2.009E-03  1.260E-05
   1    4    7     1     7    6.1679E+00  2.0165E-03   6.1659E+00  0.000E+00  0.000E+00  0.000E+00  1.39930E+02  1.880E+00  4.062E+00  8.472E-04  2.008E-03  1.361E-05
   1    4    8     1     8    6.1659E+00  2.0160E-03   6.1639E+00  0.000E+00  0.000E+00  0.000E+00  1.39630E+02  1.880E+00  4.062E+00  8.471E-04  2.006E-03  1.479E-05
   1    4    9     1     9    6.1639E+00  2.0155E-03   6.1618E+00  0.000E+00  0.000E+00  0.000E+00  1.39330E+02  1.880E+00  4.061E+00  8.470E-04  2.004E-03  1.613E-05
   1    4   10     1    10    6.1618E+00  2.0150E-03   6.1598E+00  0.000E+00  0.000E+00  0.000E+00  1.39029E+02  1.879E+00  4.061E+00  8.469E-04  2.002E-03  1.763E-05
   1    4   11     1    11    6.1598E+00  2.0144E-03   6.1578E+00  0.000E+00  0.000E+00  0.000E+00  1.38729E+02  1.879E+00  4.061E+00  8.468E-04  2.000E-03  1.928E-05
   1    4   12     1    12    6.1578E+00  2.0139E-03   6.1558E+00  0.000E+00  0.000E+00  0.000E+00  1.38429E+02  1.879E+00  4.060E+00  8.467E-04  1.998E-03  2.107E-05
   1    4   13     1    13    6.1558E+00  2.0134E-03   6.1538E+00  0.000E+00  0.000E+00  0.000E+00  1.38128E+02  1.878E+00  4.060E+00  8.466E-04  1.995E-03  2.299E-05
   1    4   14     1    14    6.1538E+00  2.0129E-03   6.1518E+00  0.000E+00  0.000E+00  0.000E+00  1.37828E+02  1.878E+00  4.059E+00  8.465E-04  1.993E-03  2.504E-05
   1    4   15     1    15    6.1518E+00  2.0124E-03   6.1498E+00  0.000E+00  0.000E+00  0.000E+00  1.37528E+02  1.878E+00  4.059E+00  8.464E-04  1.990E-03  2.720E-05
   1    4   16     1    16    6.1498E+00  2.0119E-03   6.1477E+00  0.000E+00  0.000E+00  0.000E+00  1.37227E+02  1.877E+00  4.059E+00  8.463E-04  1.987E-03  2.947E-05
   1    4   17     1    17    6.1477E+00  2.0114E-03   6.1457E+00  0.000E+00  0.000E+00  0.000E+00  1.36927E+02  1.877E+00  4.058E+00  8.462E-04  1.984E-03  3.183E-05
   1    4   18     1    18    6.1457E+00  2.0108E-03   6.1437E+00  0.000E+00  0.000E+00  0.000E+00  1.36627E+02  1.877E+00  4.058E+00  8.461E-04  1.981E-03  3.427E-05
   1    4   19     1    19    6.1437E+00  2.0103E-03   6.1417E+00  0.000E+00  0.000E+00  0.000E+00  1.36326E+02  1.876E+00  4.057E+00  8.460E-04  1.978E-03  3.679E-05
   1    4   20     1    20    6.1417E+00  2.0098E-03   6.1397E+00  0.000E+00  0.000E+00  0.000E+00  1.36026E+02  1.876E+00  4.057E+00  8.458E-04  1.975E-03  3.937E-05
   1    4   21     1    21    6.1397E+00  2.0093E-03   6.1377E+00  0.000E+00  0.000E+00  0.000E+00  1.35726E+02  1.876E+00  4.057E+00  8.457E-04  1.972E-03  4.201E-05
   1    4   22     1    22    6.1377E+00  2.0088E-03   6.1357E+00  0.000E+00  0.000E+00  0.000E+00  1.35425E+02  1.875E+00  4.056E+00  8.456E-04  1.969E-03  4.468E-05
   1    4   23     1    23    6.1357E+00  2.0083E-03   6.1337E+00  0.000E+00  0.000E+00  0.000E+00  1.35125E+02  1.875E+00  4.056E+00  8.455E-04  1.966E-03  4.739E-05
   1    4   24     1    24    6.1337E+00  2.0078E-03   6.1317E+00  0.000E+00  0.000E+00  0.000E+00  1.34825E+02  1.875E+00  4.056E+00  8.454E-04  1.963E-03  5.011E-05
   1    4   25     1    25    6.1317E+00  2.0073E-03   6.1297E+00  0.000E+00  0.000E+00  0.000E+00  1.34525E+02  1.875E+00  4.055E+00  8.453E-04  1.959E-03  5.284E-05
   1    4   26     1    26    6.1297E+00  2.0067E-03   6.1277E+00  0.000E+00  0.000E+00  0.000E+00  1.34224E+02  1.874E+00  4.055E+00  8.452E-04  1.956E-03  5.557E-05
   1    4   27     1    27    6.1277E+00  2.0062E-03   6.1257E+00  0.000E+00  0.000E+00  0.000E+00  1.33924E+02  1.874E+00  4.054E+00  8.451E-04  1.953E-03  5.827E-05
   1    4   28     1    28    6.1257E+00  2.0057E-03   6.1236E+00  0.000E+00  0.000E+00  0.000E+00  1.33624E+02  1.874E+00  4.054E+00  8.450E-04  1.950E-03  6.094E-05
   1    4   29     1    29    6.1236E+00  2.0052E-03   6.1216E+00  0.000E+00  0.000E+00  0.000E+00  1.33323E+02  1.873E+00  4.054E+00  8.449E-04  1.947E-03  6.356E-05
   1    4   30     1    30    6.1216E+00  2.0047E-03   6.1196E+00  0.000E+00  0.000E+00  0.000E+00  1.33023E+02  1.873E+00  4.053E+00  8.448E-04  1.944E-03  6.610E-05
   1    4   31     1    31    6.1196E+00  2.0042E-03   6.1176E+00  0.000E+00  0.000E+00  0.000E+00  1.32723E+02  1.873E+00  4.053E+00  8.447E-04  1.941E-03  6.855E-05
   1    4   32     1    32    6.1176E+00  2.0037E-03   6.1156E+00  0.000E+00  0.000E+00  0.000E+00  1.32422E+02  1.872E+00  4.053E+00  8.446E-04  1.938E-03  7.087E-05
   1    4   33     1    33    6.1156E+00  2.0032E-03   6.1136E+00  0.000E+00  0.000E+00  0.000E+00  1.32122E+02  1.872E+00  4.052E+00  8.445E-04  1.935E-03  7.303E-05
   1    4   34     1    34    6.1136E+00  2.0026E-03   6.1116E+00  0.000E+00  0.000E+00  0.000E+00  1.31822E+02  1.872E+00  4.052E+00  8.444E-04  1.933E-03  7.499E-05
   1    4   35     1    35    6.1116E+00  2.0021E-03   6.1096E+00  0.000E+00  0.000E+00  0.000E+00  1.31521E+02  1.871E+00  4.051E+00  8.443E-04  1.930E-03  7.668E-05
   1    4   36     1    36    6.1096E+00  2.0016E-03   6.1076E+00  0.000E+00  0.000E+00  0.000E+00  1.31221E+02  1.871E+00  4.051E+00  8.442E-04  1.954E-03  5.286E-05
   1    4   37     1    37    6.1076E+00  2.0011E-03   6.1056E+00  0.000E+00  0.000E+00  0.000E+00  1.30921E+02  1.871E+00  4.051E+00  8.441E-04  1.952E-03  5.401E-05
   1    4   38     1    38    6.1056E+00  2.0006E-03   6.1036E+00  0.000E+00  0.000E+00  0.000E+00  1.30620E+02  1.870E+00  4.050E+00  8.440E-04  1.951E-03  5.468E-05
   1    4   39     1    39    6.1036E+00  2.0001E-03   6.1016E+00  0.000E+00  0.000E+00  0.000E+00  1.30320E+02  1.870E+00  4.050E+00  8.439E-04  1.977E-03  2.809E-05
   1    4   40     1    40    6.1016E+00  1.9996E-03   6.0996E+00  0.000E+00  0.000E+00  0.000E+00  1.30020E+02  1.870E+00  4.050E+00  8.438E-04  1.986E-03  1.834E-05
   1    4   41     1    41    6.0996E+00  1.9991E-03   6.0976E+00  0.000E+00  0.000E+00  0.000E+00  1.29719E+02  1.869E+00  4.049E+00  8.437E-04  1.987E-03  1.674E-05
   1    4   42     1    42    6.0976E+00  1.9986E-03   6.0956E+00  0.000E+00  0.000E+00  0.000E+00  1.29419E+02  1.869E+00  4.049E+00  8.436E-04  2.031E-03 -2.723E-05
   1    4   43     1    43    6.0956E+00  1.9981E-03   6.0936E+00  0.000E+00  0.000E+00  0.000E+00  1.29119E+02  1.869E+00  4.048E+00  8.435E-04  2.034E-03 -3.143E-05
   1    4   44     1    44    6.0936E+00  1.9975E-03   6.0916E+00  0.000E+00  0.000E+00  0.000E+00  1.28819E+02  1.869E+00  4.048E+00  8.434E-04  2.040E-03 -3.742E-05
   1    4   45     1    45    6.0916E+00  1.9970E-03   6.0896E+00  0.000E+00  0.000E+00  0.000E+00  1.28518E+02  1.868E+00  4.048E+00  8.433E-04  2.048E-03 -4.555E-05
   1    4   46     1    46    6.0896E+00  1.9965E-03   6.0876E+00  0.000E+00  0.000E+00  0.000E+00  1.28218E+02  1.868E+00  4.047E+00  8.432E-04  2.090E-03 -8.884E-05
   1    4   47     1    47    6.0876E+00  1.9960E-03   6.0856E+00  0.000E+00  0.000E+00  0.000E+00  1.27918E+02  1.868E+00  4.047E+00  8.431E-04  2.088E-03 -8.700E-05
   1    4   48     1    48    6.0856E+00  1.9955E-03   6.0836E+00  0.000E+00  0.000E+00  0.000E+00  1.27617E+02  1.867E+00  4.047E+00  8.430E-04  1.621E-03  3.799E-04
   1    4   49     1    49    6.0836E+00  1.9950E-03   6.0816E+00  0.000E+00  0.000E+00  0.000E+00  1.27317E+02  1.867E+00  4.046E+00  8.429E-04  1.469E-03  5.311E-04
   1    4   50     1    50    6.0816E+00  1.9945E-03   6.0796E+00  0.000E+00  0.000E+00  0.000E+00  1.27017E+02  1.867E+00  4.046E+00  8.428E-04  1.504E-03  4.951E-04
   1    4   51     1    51    6.0796E+00  1.9940E-03   6.0777E+00  0.000E+00  0.000E+00  0.000E+00  1.26716E+02  1.866E+00  4.045E+00  8.427E-04  1.477E-03  5.220E-04
   1    4   52     1    52    6.0777E+00  1.9935E-03   6.0757E+00  0.000E+00  0.000E+00  0.000E+00  1.26416E+02  1.866E+00  4.045E+00  8.426E-04  1.461E-03  5.373E-04
   1    4   53     1    53    6.0757E+00  1.9930E-03   6.0737E+00  0.000E+00  0.000E+00  0.000E+00  1.26116E+02  1.866E+00  4.045E+00  8.424E-04  1.459E-03  5.394E-04
   1    4   54     1    54    6.0737E+00  1.9924E-03   6.0717E+00  0.000E+00  0.000E+00  0.000E+00  1.25815E+02  1.865E+00  4.044E+00  8.423E-04  1.470E-03  5.279E-04
   1    4   55     1    55    6.0717E+00  1.9919E-03   6.0697E+00  0.000E+00  0.000E+00  0.000E+00  1.25515E+02  1.865E+00  4.044E+00  8.422E-04  1.511E-03  4.858E-04
   1    4   56     1    56    6.0697E+00  1.9914E-03   6.0677E+00  0.000E+00  0.000E+00  0.000E+00  1.25215E+02  1.865E+00  4.044E+00  8.421E-04  1.450E-03  5.465E-04
   1    4   57     1    57    6.0677E+00  1.9909E-03   6.0657E+00  0.000E+00  0.000E+00  0.000E+00  1.24914E+02  1.864E+00  4.043E+00  8.420E-04  1.631E-03  3.652E-04
   1    4   58     1    58    6.0657E+00  1.9904E-03   6.0637E+00  0.000E+00  0.000E+00  0.000E+00  1.24614E+02  1.864E+00  4.043E+00  8.419E-04  2.082E-03 -8.690E-05
   1    4   59     1    59    6.0637E+00  1.9899E-03   6.0617E+00  0.000E+00  0.000E+00  0.000E+00  1.24314E+02  1.864E+00  4.042E+00  8.418E-04  2.061E-03 -6.643E-05
   1    4   60     1    60    6.0617E+00  1.9894E-03   6.0597E+00  0.000E+00  0.000E+00  0.000E+00  1.24013E+02  1.863E+00  4.042E+00  8.417E-04  2.011E-03 -1.690E-05
   1    4   61     1    61    6.0597E+00  1.9889E-03   6.0577E+00  0.000E+00  0.000E+00  0.000E+00  1.23713E+02  1.863E+00  4.042E+00  8.416E-04  2.000E-03 -5.943E-06
   1    4   62     1    62    6.0577E+00  1.9884E-03   6.0558E+00  0.000E+00  0.000E+00  0.000E+00  1.23413E+02  1.863E+00  4.041E+00  8.415E-04  1.991E-03  2.678E-06
   1    4   63     1    63    6.0558E+00  1.9879E-03   6.0538E+00  0.000E+00  0.000E+00  0.000E+00  1.23113E+02  1.863E+00  4.041E+00  8.414E-04  1.964E-03  2.922E-05
   1    4   64     1    64    6.0538E+00  1.9874E-03   6.0518E+00  0.000E+00  0.000E+00  0.000E+00  1.22812E+02  1.862E+00  4.040E+00  8.413E-04  1.939E-03  5.380E-05
   1    4   65     1    65    6.0518E+00  1.9869E-03   6.0498E+00  0.000E+00  0.000E+00  0.000E+00  1.22512E+02  1.862E+00  4.040E+00  8.412E-04  1.934E-03  5.741E-05
   1    4   66     1    66    6.0498E+00  1.9863E-03   6.0478E+00  0.000E+00  0.000E+00  0.000E+00  1.22212E+02  1.862E+00  4.040E+00  8.411E-04  1.908E-03  8.348E-05
   1    4   67     1    67    6.0478E+00  1.9858E-03   6.0458E+00  0.000E+00  0.000E+00  0.000E+00  1.21911E+02  1.861E+00  4.039E+00  8.410E-04  1.897E-03  9.407E-05
   1    4   68     1    68    6.0458E+00  1.9853E-03   6.0438E+00  0.000E+00  0.000E+00  0.000E+00  1.21611E+02  1.861E+00  4.039E+00  8.409E-04  1.896E-03  9.472E-05
   1    4   69     1    69    6.0438E+00  1.9848E-03   6.0419E+00  0.000E+00  0.000E+00  0.000E+00  1.21311E+02  1.861E+00  4.039E+00  8.408E-04  1.895E-03  9.472E-05
   1    4   70     1    70    6.0419E+00  1.9843E-03   6.0399E+00  0.000E+00  0.000E+00  0.000E+00  1.21010E+02  1.860E+00  4.038E+00  8.407E-04  1.895E-03  9.412E-05
   1    4   71     1    71    6.0399E+00  1.9838E-03   6.0379E+00  0.000E+00  0.000E+00  0.000E+00  1.20710E+02  1.860E+00  4.038E+00  8.406E-04  1.895E-03  9.299E-05
   1    4   72     1    72    6.0379E+00  1.9833E-03   6.0359E+00  0.000E+00  0.000E+00  0.000E+00  1.20410E+02  1.860E+00  4.037E+00  8.405E-04  1.883E-03  1.049E-04
   1    4   73     1    73    6.0359E+00  1.9828E-03   6.0339E+00  0.000E+00  0.000E+00  0.000E+00  1.20109E+02  1.859E+00  4.037E+00  8.404E-04  1.884E-03  9.908E-05
   1    4   74     1    74    6.0339E+00  1.9823E-03   6.0319E+00  0.000E+00  0.000E+00  0.000E+00  1.19809E+02  1.859E+00  4.037E+00  8.403E-04  1.885E-03  9.711E-05
   1    4   75     1    75    6.0319E+00  1.9818E-03   6.0300E+00  0.000E+00  0.000E+00  0.000E+00  1.19509E+02  1.859E+00  4.036E+00  8.402E-04  1.887E-03  9.482E-05
   1    4   76     1    76    6.0300E+00  1.9813E-03   6.0280E+00  0.000E+00  0.000E+00  0.000E+00  1.19208E+02  1.858E+00  4.036E+00  8.401E-04  1.889E-03  9.223E-05
   1    4   77     1    77    6.0280E+00  1.9808E-03   6.0260E+00  0.000E+00  0.000E+00  0.000E+00  1.18908E+02  1.858E+00  4.036E+00  8.400E-04  1.891E-03  8.933E-05
   1    4   78     1    78    6.0260E+00  1.9803E-03   6.0240E+00  0.000E+00  0.000E+00  0.000E+00  1.18608E+02  1.858E+00  4.035E+00  8.399E-04  1.894E-03  8.614E-05
   1    4   79     1    79    6.0240E+00  1.9798E-03   6.0220E+00  0.000E+00  0.000E+00  0.000E+00  1.18307E+02  1.857E+00  4.035E+00  8.398E-04  1.897E-03  8.265E-05
   1    4   80     1    80    6.0220E+00  1.9792E-03   6.0201E+00  0.000E+00  0.000E+00  0.000E+00  1.18007E+02  1.857E+00  4.034E+00  8.397E-04  1.900E-03  7.887E-05
   1    4   81     1    81    6.0201E+00  1.9787E-03   6.0181E+00  0.000E+00  0.000E+00  0.000E+00  1.17707E+02  1.857E+00  4.034E+00  8.396E-04  1.904E-03  7.481E-05
   1    4   82     1    82    6.0181E+00  1.9782E-03   6.0161E+00  0.000E+00  0.000E+00  0.000E+00  1.17407E+02  1.857E+00  4.034E+00  8.395E-04  1.908E-03  7.045E-05
   1    4   83     1    83    6.0161E+00  1.9777E-03   6.0141E+00  0.000E+00  0.000E+00  0.000E+00  1.17106E+02  1.856E+00  4.033E+00  8.394E-04  1.912E-03  6.580E-05
   1    4   84     1    84    6.0141E+00  1.9772E-03   6.0121E+00  0.000E+00  0.000E+00  0.000E+00  1.16806E+02  1.856E+00  4.033E+00  8.393E-04  1.916E-03  6.086E-05
   1    4   85     1    85    6.0121E+00  1.9767E-03   6.0102E+00  0.000E+00  0.000E+00  0.000E+00  1.16506E+02  1.856E+00  4.033E+00  8.392E-04  1.921E-03  5.562E-05
   1    4   86     1    86    6.0102E+00  1.9762E-03   6.0082E+00  0.000E+00  0.000E+00  0.000E+00  1.16205E+02  1.855E+00  4.032E+00  8.391E-04  1.926E-03  5.010E-05
   1    4   87     1    87    6.0082E+00  1.9757E-03   6.0062E+00  0.000E+00  0.000E+00  0.000E+00  1.15905E+02  1.855E+00  4.032E+00  8.390E-04  1.935E-03  4.112E-05
   1    4   88     1    88    6.0062E+00  1.9752E-03   6.0042E+00  0.000E+00  0.000E+00  0.000E+00  1.15605E+02  1.855E+00  4.031E+00  8.389E-04  1.941E-03  3.409E-05
   1    4   89     1    89    6.0042E+00  1.9747E-03   6.0023E+00  0.000E+00  0.000E+00  0.000E+00  1.15304E+02  1.854E+00  4.031E+00  8.387E-04  1.948E-03  2.677E-05
   1    4   90     1    90    6.0023E+00  1.9742E-03   6.0003E+00  0.000E+00  0.000E+00  0.000E+00  1.15004E+02  1.854E+00  4.031E+00  8.386E-04  1.955E-03  1.916E-05
   1    4   91     1    91    6.0003E+00  1.9737E-03   5.9983E+00  0.000E+00  0.000E+00  0.000E+00  1.14704E+02  1.854E+00  4.030E+00  8.385E-04  1.962E-03  1.129E-05
   1    4   92     1    92    5.9983E+00  1.9732E-03   5.9963E+00  0.000E+00  0.000E+00  0.000E+00  1.14403E+02  1.853E+00  4.030E+00  8.384E-04  1.970E-03  3.190E-06
   1    4   93     1    93    5.9963E+00  1.9727E-03   5.9944E+00  0.000E+00  0.000E+00  0.000E+00  1.14103E+02  1.853E+00  4.030E+00  8.383E-04  1.978E-03 -5.114E-06
   1    4   94     1    94    5.9944E+00  1.9722E-03   5.9924E+00  0.000E+00  0.000E+00  0.000E+00  1.13803E+02  1.853E+00  4.029E+00  8.382E-04  1.986E-03 -1.359E-05
   1    4   95     1    95    5.9924E+00  1.9717E-03   5.9904E+00  0.000E+00  0.000E+00  0.000E+00  1.13502E+02  1.852E+00  4.029E+00  8.381E-04  1.994E-03 -2.220E-05
   1    4   96     1    96    5.9904E+00  1.9712E-03   5.9885E+00  0.000E+00  0.000E+00  0.000E+00  1.13202E+02  1.852E+00  4.028E+00  8.380E-04  2.002E-03 -3.092E-05
   1    4   97     1    97    5.9885E+00  1.9707E-03   5.9865E+00  0.000E+00  0.000E+00  0.000E+00  1.12902E+02  1.852E+00  4.028E+00  8.379E-04  2.010E-03 -3.973E-05
   1    4   98     1    98    5.9865E+00  1.9701E-03   5.9845E+00  0.000E+00  0.000E+00  0.000E+00  1.12602E+02  1.852E+00  4.028E+00  8.378E-04  2.019E-03 -4.862E-05
   1    4   99     1    99    5.9845E+00  1.9696E-03   5.9825E+00  0.000E+00  0.000E+00  0.000E+00  1.12301E+02  1.851E+00  4.027E+00  8.377E-04  2.027E-03 -5.760E-05
   1    4  100     1   100    5.9825E+00  1.9691E-03   5.9806E+00  0.000E+00  0.000E+00  0.000E+00  1.12001E+02  1.851E+00  4.027E+00  8.376E-04  2.036E-03 -6.671E-05



1
  VOLUMETRIC BUDGET FOR UNSATURATED ZONE BENEATH STREAMS AT END OF TIME STEP    30 STRESS PERIOD  15
  ------------------------------------------------------------------------------------------------

    CUMULATIVE VOLUMES             L**3    RATES FOR THIS TIME STEP         L**3/T
    ------------------                     ------------------------


          STREAM LOSS =     14049331.0000            STREAM LOSS =            0.1994
    CHANGE IN STORAGE =      1253365.7500      CHANGE IN STORAGE =        7.7341E-03
       RECHARGE TO GW =     12800739.0000         RECHARGE TO GW =            0.1920

             TOTAL IN =     14049331.0000               TOTAL IN =            0.1994

            TOTAL OUT =     14054105.0000              TOTAL OUT =            0.1998

             IN - OUT =        -4774.0000               IN - OUT =       -3.5414E-04

  PERCENT DISCREPANCY =           -0.01      PERCENT DISCREPANCY =            -0.04



1
              HEAD IN LAYER   1 AT END OF TIME STEP  30 IN STRESS PERIOD   15
  ---------------------------------------------------------------------------

          1      2      3      4      5      6      7      8      9     10
         11     12     13     14     15     16     17     18     19     20
         21     22     23     24     25     26     27     28     29     30
         31     32     33     34     35     36     37     38     39     40
         41     42     43     44     45     46     47     48     49     50
         51     52     53     54     55     56     57     58     59     60
         61     62     63     64     65     66     67     68     69     70
         71     72     73     74     75     76     77     78     79     80
         81     82     83     84     85     86     87     88     89     90
         91     92     93     94     95     96     97     98     99    100
 .........................................................................
   1   104.0  104.0  103.9  103.8  103.7  103.5  103.3  103.0  102.8  102.4
       102.1  101.7  101.3  100.8  100.3   99.7   99.1   98.4   97.7   96.9
        96.1   95.2   94.3   93.3   92.2   91.1   89.9   88.6   87.3   85.8
        84.3   82.6   80.9   79.0   77.0   74.9   72.7   70.3   67.7   64.9
        61.9   58.7   55.2   51.3   47.0   42.3   36.7   30.2   22.1   12.8
        12.0   12.7   13.4   14.4   17.2   22.9   28.9   34.4   39.2   43.5
        47.3   50.7   53.8   56.7   59.2   61.6   63.7   65.7   67.5   69.1
        70.6   72.0   73.2   74.3   75.3   76.2   77.0   77.7   78.3   78.8
        79.2   79.5   79.8   80.0   80.1   80.1   80.0   79.9   79.8   79.6
        79.3   79.0   78.6   78.2   77.7   77.2   76.7   76.2   75.6   75.0
   2   104.0  104.0  103.9  103.8  103.7  103.5  103.3  103.0  102.8  102.4
       102.1  101.7  101.3  100.8  100.3   99.7   99.1   98.4   97.7   96.9
        96.1   95.2   94.3   93.3   92.2   91.1   89.9   88.6   87.3   85.8
        84.3   82.6   80.9   79.0   77.0   74.9   72.7   70.3   67.7   64.9
        61.9   58.7   55.2   51.3   47.1   42.3   36.8   30.2   21.7    9.8
        11.6   12.7   13.2   13.9   16.2   22.5   28.8   34.3   39.2   43.5
        47.3   50.7   53.9   56.7   59.2   61.6   63.7   65.7   67.5   69.1
        70.6   72.0   73.2   74.3   75.3   76.2   77.0   77.7   78.3   78.8
        79.2   79.5   79.8   80.0   80.1   80.1   80.0   79.9   79.8   79.6
        79.3   79.0   78.6   78.2   77.7   77.2   76.7   76.2   75.6   75.0
   3   104.0  104.0  103.9  103.8  103.7  103.5  103.3  103.0  102.8  102.4
       102.1  101.7  101.3  100.8  100.3   99.7   99.1   98.4   97.7   96.9
        96.1   95.2   94.3   93.3   92.2   91.1   89.9   88.6   87.3   85.8
        84.3   82.6   80.9   79.0   77.0   74.9   72.7   70.3   67.7   64.9
        61.9   58.7   55.2   51.3   47.1   42.3   36.8   30.3   21.2    0.0
        11.2   12.8   13.0   13.0   13.8   21.7   28.5   34.3   39.2   43.5
        47.3   50.8   53.9   56.7   59.2   61.6   63.7   65.7   67.5   69.1
        70.6   72.0   73.2   74.3   75.3   76.2   77.0   77.7   78.3   78.8
        79.2   79.5   79.8   80.0   80.1   80.1   80.1   80.0   79.8   79.6
        79.3   79.0   78.6   78.2   77.7   77.2   76.7   76.2   75.6   75.0
   4   104.0  104.0  103.9  103.8  103.7  103.5  103.3  103.0  102.8  102.4
       102.1  101.7  101.3  100.8  100.3   99.7   99.1   98.4   97.7   96.9
        96.1   95.2   94.3   93.3   92.3   91.1   89.9   88.6   87.3   85.8
        84.3   82.6   80.9   79.0   77.1   74.9   72.7   70.3   67.7   64.9
        61.9   58.7   55.2   51.3   47.1   42.3   36.9   30.5   22.2   10.1
        12.3   13.0   12.8   11.9    9.5   20.7   28.3   34.2   39.2   43.5
        47.3   50.8   53.9   56.7   59.3   61.6   63.7   65.7   67.5   69.2
        70.6   72.0   73.2   74.4   75.3   76.2   77.0   77.7   78.3   78.8
        79.2   79.5   79.8   80.0   80.1   80.1   80.1   80.0   79.8   79.6
        79.3   79.0   78.6   78.2   77.7   77.3   76.7   76.2   75.6   75.0
   5   104.0  104.0  103.9  103.8  103.7  103.5  103.3  103.0  102.8  102.4
       102.1  101.7  101.3  100.8  100.3   99.7   99.1   98.4   97.7   96.9
        96.1   95.2   94.3   93.3   92.2   91.1   89.9   88.6   87.3   85.8
        84.3   82.6   80.9   79.0   77.0   74.9   72.7   70.3   67.7   64.9
        61.9   58.7   55.2   51.3   47.1   42.3   37.0   30.7   23.2   14.7
        13.5   13.2   12.7   10.9    0.0   19.8   28.1   34.2   39.2   43.5
        47.3   50.8   53.9   56.7   59.2   61.6   63.7   65.7   67.5   69.1
        70.6   72.0   73.2   74.3   75.3   76.2   77.0   77.7   78.3   78.8
        79.2   79.5   79.8   80.0   80.1   80.1   80.1   80.0   79.8   79.6
        79.3   79.0   78.6   78.2   77.7   77.2   76.7   76.2   75.6   75.0
   6   104.0  104.0  103.9  103.8  103.7  103.5  103.3  103.0  102.8  102.4
       102.1  101.7  101.3  100.8  100.3   99.7   99.1   98.4   97.7   96.9
        96.1   95.2   94.3   93.3   92.2   91.1   89.9   88.6   87.3   85.8
        84.3   82.6   80.9   79.0   77.0   74.9   72.7   70.3   67.7   64.9
        61.9   58.7   55.2   51.3   47.1   42.4   37.0   31.0   24.1   17.2
        14.5   13.5   12.6   11.2    9.2   20.2   28.0   34.1   39.1   43.5
        47.3   50.7   53.9   56.7   59.2   61.6   63.7   65.7   67.5   69.1
        70.6   72.0   73.2   74.3   75.3   76.2   77.0   77.7   78.3   78.8
        79.2   79.5   79.8   80.0   80.1   80.1   80.0   79.9   79.8   79.6
        79.3   79.0   78.6   78.2   77.7   77.2   76.7   76.2   75.6   75.0
   7   104.0  104.0  103.9  103.8  103.7  103.5  103.3  103.0  102.8  102.4
       102.1  101.7  101.3  100.8  100.3   99.7   99.1   98.4   97.7   96.9
        96.1   95.2   94.3   93.3   92.2   91.1   89.9   88.6   87.3   85.8
        84.3   82.6   80.9   79.0   77.0   74.9   72.7   70.3   67.7   64.9
        61.9   58.7   55.2   51.3   47.1   42.4   37.1   31.1   24.5   18.3
        15.1   13.6   12.7   11.6   12.1   20.6   28.0   34.1   39.1   43.5
        47.3   50.7   53.8   56.7   59.2   61.6   63.7   65.7   67.5   69.1
        70.6   72.0   73.2   74.3   75.3   76.2   77.0   77.7   78.3   78.8
        79.2   79.5   79.8   80.0   80.1   80.1   80.0   79.9   79.8   79.6
        79.3   79.0   78.6   78.2   77.7   77.2   76.7   76.2   75.6   75.0

 HEAD WILL BE SAVED ON UNIT   51 AT END OF TIME STEP   30, STRESS PERIOD   15
1
  VOLUMETRIC BUDGET FOR ENTIRE MODEL AT END OF TIME STEP   30, STRESS PERIOD  15
  ------------------------------------------------------------------------------

     CUMULATIVE VOLUMES      L**3       RATES FOR THIS TIME STEP      L**3/T
     ------------------                 ------------------------

           IN:                                      IN:
           ---                                      ---
             STORAGE     =    76658192.0000               STORAGE     =           1.0391
       CONSTANT HEAD     =           0.0000         CONSTANT HEAD     =           0.0000
               WELLS     =           0.0000                 WELLS     =           0.0000
     HEAD DEP BOUNDS     =           0.0000       HEAD DEP BOUNDS     =           0.0000
      STREAM LEAKAGE     =    12800763.0000        STREAM LEAKAGE     =           0.1920

                TOTAL IN =    89458952.0000                  TOTAL IN =           1.2311

          OUT:                                     OUT:
          ----                                     ----
             STORAGE     =     2373644.0000               STORAGE     =           0.0000
       CONSTANT HEAD     =           0.0000         CONSTANT HEAD     =           0.0000
               WELLS     =    72856080.0000                 WELLS     =           1.1210
     HEAD DEP BOUNDS     =    14229223.0000       HEAD DEP BOUNDS     =           0.1101
      STREAM LEAKAGE     =           0.0000        STREAM LEAKAGE     =           0.0000

               TOTAL OUT =    89458952.0000                 TOTAL OUT =           1.2311

                IN - OUT =           0.0000                  IN - OUT =           0.0000

     PERCENT DISCREPANCY =           0.00         PERCENT DISCREPANCY =           0.00






         TIME SUMMARY AT END OF TIME STEP   30 IN STRESS PERIOD   15
                    SECONDS     MINUTES      HOURS       DAYS        YEARS
                    -----------------------------------------------------------
   TIME STEP LENGTH 2.49961E+05  4166.0      69.434      2.8931     7.92080E-03
 STRESS PERIOD TIME 2.59200E+06  43200.      720.00      30.000     8.21355E-02
         TOTAL TIME 3.88800E+07 6.48000E+05  10800.      450.00      1.2320    
1
1
                            STRESS PERIOD NO.   16, LENGTH =   2592000.    
                            -----------------------------------------------

                              NUMBER OF TIME STEPS =    30

                               MULTIPLIER FOR DELT =     1.100

                            INITIAL TIME STEP SIZE =   15757.40    

 REUSING NON-PARAMETER WELLS FROM LAST STRESS PERIOD

      1 WELL 

 REUSING NON-PARAMETER GHB CELLS FROM LAST STRESS PERIOD

      7 GHB CELLS



 CLASSIFICATION & COUNT OF STREAM SEGMENTS BASED ON SOURCE OF INFLOW:

                HEADWATER     DIVERSION     RECEIVES TRIBUTARY FLOW
                ---------     ---------     -----------------------
                     1              0               0



                    INPUT DATA FOR EACH STREAM SEGMENT
 ---------------------------------------------------------------------------------------------

 SEGMENT    SEG.     INFLOW   OVERLAND   STREAM    STREAM   ICALC  OUTFLOW  DIVERSION PRIORITY
    NO.    LENGTH     RATE     RUNOFF      ET       PPT.    METH.  TO SEG.  FROM SEG.    NO.

      1  2.000E+04 2.241E+01 0.000E+00 0.000E+00 0.000E+00    2        0        0        0


         STREAMBED PROPERTIES AND STREAM DIMENSIONS

 SEGMENT     BED HYD. COND.      BED THICKNESS     ELEV.-TOP OF BED     WIDTH OF STREAM     DEPTH OF STREAM    STREAM ROUGHNESS
    No.     UPPER     LOWER     UPPER     LOWER     UPPER     LOWER     UPPER     LOWER     UPPER     LOWER   CHANNEL      BANK

     1  3.500E-07 3.500E-07                                                                                 3.000E-02 4.000E-02

  EIGHT POINT CROSS-SECTION DATA FOR SEGMENTS WITH ICALC = 2
    X VALUES X VALUES START FROM LEFT SIDE LOOKING DOWNSTREAM

     SEGMENT NO.        X1        X2        X3        X4        X5        X6        X7        X8
            1      0.000E+00 2.000E+00 4.000E+00 6.000E+00 8.000E+00 1.000E+01 1.200E+01 1.400E+01

    Z VALUES ARE RELATIVE TO STREAMBED ELEVATION

     SEGMENT NO.          Z1        Z2        Z3        Z4        Z5        Z6        Z7        Z8
            1      6.000E+00 4.500E+00 3.500E+00 0.000E+00 3.000E-01 3.500E+00 4.500E+00 6.000E+00



 
 SOLVING FOR HEAD 
                                                   Max.-Head-Change                         Max.-Flux-Residual
  Residual-Control   Outer-Iter.   Inner-Iter.     Column Row Layer    Maximum-Head-Change  Column Row Layer    Maximum-Flux-Residual          L2-NORM 
          0                 1           2            69    1     1      -0.1214457910E-01      50    3    1         0.2102765569E+00      0.2836425922E+00
          0                 2           2            68    1     1       0.1185431611E-02      55    5    1        -0.2079141566E-01      0.2707627906E-01
          0                 3           1            68    1     1      -0.1049133559E-03      55    5    1         0.2015351312E-02      0.2657489750E-02
          0                 4           1            68    1     1       0.8298472480E-05      55    5    1        -0.1603081209E-03      0.2111258994E-03
          0                 5           1            68    1     1      -0.5773220164E-06      55    5    1         0.1127659180E-04      0.1485712429E-04

    ------------------------------------------------
       NWT REQUIRED            5 OUTER ITERATIONS 
       AND A TOTAL OF          7 INNER ITERATIONS.
    ------------------------------------------------

 NO OUTPUT CONTROL FOR STRESS PERIOD   16   TIME STEP    1
 
 WELLS WITH REDUCED PUMPING FOR STRESS PERIOD    16 TIME STEP     1
   LAY   ROW   COL         APPL.Q          ACT.Q        GW-HEAD       CELL-BOT
     1     3    50  -0.860281E+00  -0.595116E+00   0.706532E-03   0.000000E+00
     1     5    55  -0.860281E+00  -0.525350E+00   0.637505E-03   0.000000E+00
 
 
 SOLVING FOR HEAD 
                                                   Max.-Head-Change                         Max.-Flux-Residual
  Residual-Control   Outer-Iter.   Inner-Iter.     Column Row Layer    Maximum-Head-Change  Column Row Layer    Maximum-Flux-Residual          L2-NORM 
          0                 1           2            69    1     1      -0.1334753380E-01      69    1    1        -0.2526107697E-02      0.4208352835E-01
          0                 2           2            68    1     1       0.1300051128E-02      69    1    1         0.2526096414E-03      0.4101265845E-02
          0                 3           2            68    1     1      -0.1148838716E-03      69    1    1        -0.2273497090E-04      0.3781239837E-03
          0                 4           1            68    1     1       0.9078621326E-05      69    1    1         0.1821070484E-05      0.3099255635E-04
          0                 5           1            68    1     1      -0.6312841229E-06      69    1    1        -0.1280194937E-06      0.2209099916E-05

    ------------------------------------------------
       NWT REQUIRED            5 OUTER ITERATIONS 
       AND A TOTAL OF          8 INNER ITERATIONS.
    ------------------------------------------------

 NO OUTPUT CONTROL FOR STRESS PERIOD   16   TIME STEP    2
 
 WELLS WITH REDUCED PUMPING FOR STRESS PERIOD    16 TIME STEP     2
   LAY   ROW   COL         APPL.Q          ACT.Q        GW-HEAD       CELL-BOT
     1     3    50  -0.859943E+00  -0.594862E+00   0.706513E-03   0.000000E+00
     1     5    55  -0.859943E+00  -0.525070E+00   0.637441E-03   0.000000E+00
 
 
 SOLVING FOR HEAD 
                                                   Max.-Head-Change                         Max.-Flux-Residual
  Residual-Control   Outer-Iter.   Inner-Iter.     Column Row Layer    Maximum-Head-Change  Column Row Layer    Maximum-Flux-Residual          L2-NORM 
          0                 1           2            69    1     1      -0.1466844232E-01      69    1    1        -0.2524437970E-02      0.4205021591E-01
          0                 2           2            68    1     1       0.1425366155E-02      69    1    1         0.2524424036E-03      0.4097683627E-02
          0                 3           2            68    1     1      -0.1257423426E-03      69    1    1        -0.2271994336E-04      0.3784310228E-03
          0                 4           1            68    1     1       0.9925661208E-05      69    1    1         0.1819866487E-05      0.3110489475E-04
          0                 5           1            68    1     1      -0.6897537602E-06      69    1    1        -0.1279348556E-06      0.2222633811E-05

    ------------------------------------------------
       NWT REQUIRED            5 OUTER ITERATIONS 
       AND A TOTAL OF          8 INNER ITERATIONS.
    ------------------------------------------------

 NO OUTPUT CONTROL FOR STRESS PERIOD   16   TIME STEP    3
 
 WELLS WITH REDUCED PUMPING FOR STRESS PERIOD    16 TIME STEP     3
   LAY   ROW   COL         APPL.Q          ACT.Q        GW-HEAD       CELL-BOT
     1     3    50  -0.860070E+00  -0.594560E+00   0.706151E-03   0.000000E+00
     1     5    55  -0.860070E+00  -0.524746E+00   0.637088E-03   0.000000E+00
 
 
 SOLVING FOR HEAD 
                                                   Max.-Head-Change                         Max.-Flux-Residual
  Residual-Control   Outer-Iter.   Inner-Iter.     Column Row Layer    Maximum-Head-Change  Column Row Layer    Maximum-Flux-Residual          L2-NORM 
          0                 1           2            69    1     1      -0.1611864964E-01      69    1    1        -0.2522603184E-02      0.4201804806E-01
          0                 2           2            68    1     1       0.1562327302E-02      69    1    1         0.2522586061E-03      0.4094374501E-02
          0                 3           2            68    1     1      -0.1375598449E-03      69    1    1        -0.2270343018E-04      0.3787700835E-03
          0                 4           1            68    1     1       0.1084428536E-04      69    1    1         0.1818543431E-05      0.3122429746E-04
          0                 5           1            68    1     1      -0.7530052382E-06      71    4    1         0.1320286831E-06      0.2237253239E-05

    ------------------------------------------------
       NWT REQUIRED            5 OUTER ITERATIONS 
       AND A TOTAL OF          8 INNER ITERATIONS.
    ------------------------------------------------

 NO OUTPUT CONTROL FOR STRESS PERIOD   16   TIME STEP    4
 
 WELLS WITH REDUCED PUMPING FOR STRESS PERIOD    16 TIME STEP     4
   LAY   ROW   COL         APPL.Q          ACT.Q        GW-HEAD       CELL-BOT
     1     3    50  -0.859955E+00  -0.594230E+00   0.705916E-03   0.000000E+00
     1     5    55  -0.859955E+00  -0.524392E+00   0.636838E-03   0.000000E+00
 
 
 SOLVING FOR HEAD 
                                                   Max.-Head-Change                         Max.-Flux-Residual
  Residual-Control   Outer-Iter.   Inner-Iter.     Column Row Layer    Maximum-Head-Change  Column Row Layer    Maximum-Flux-Residual          L2-NORM 
          0                 1           2            69    1     1      -0.1771054729E-01      69    1    1        -0.2520586711E-02      0.4198314691E-01
          0                 2           2            68    1     1       0.1711967622E-02      69    1    1         0.2520565767E-03      0.4091060903E-02
          0                 3           2            68    1     1      -0.1504128756E-03      69    1    1        -0.2268528164E-04      0.3791094513E-03
          0                 4           1            68    1     1       0.1183947952E-04      69    1    1         0.1817089313E-05      0.3134788541E-04
          0                 5           1            68    1     1      -0.8213245627E-06      71    4    1         0.1393301385E-06      0.2252756574E-05

    ------------------------------------------------
       NWT REQUIRED            5 OUTER ITERATIONS 
       AND A TOTAL OF          8 INNER ITERATIONS.
    ------------------------------------------------

 NO OUTPUT CONTROL FOR STRESS PERIOD   16   TIME STEP    5
 
 WELLS WITH REDUCED PUMPING FOR STRESS PERIOD    16 TIME STEP     5
   LAY   ROW   COL         APPL.Q          ACT.Q        GW-HEAD       CELL-BOT
     1     3    50  -0.860059E+00  -0.593868E+00   0.705512E-03   0.000000E+00
     1     5    55  -0.860059E+00  -0.524004E+00   0.636441E-03   0.000000E+00
 
 
 SOLVING FOR HEAD 
                                                   Max.-Head-Change                         Max.-Flux-Residual
  Residual-Control   Outer-Iter.   Inner-Iter.     Column Row Layer    Maximum-Head-Change  Column Row Layer    Maximum-Flux-Residual          L2-NORM 
          0                 1           2            69    1     1      -0.1945776151E-01      69    1    1        -0.2518369774E-02      0.4194547875E-01
          0                 2           2            68    1     1       0.1875423260E-02      69    1    1         0.2518344311E-03      0.4087344328E-02
          0                 3           2            68    1     1      -0.1643849659E-03      69    1    1        -0.2266532871E-04      0.3793837105E-03
          0                 4           1            68    1     1       0.1291657641E-04      69    1    1         0.1815490586E-05      0.3146965803E-04
          0                 5           1            68    1     1      -0.8950066773E-06      70    4    1         0.1446977915E-06      0.2268762466E-05

    ------------------------------------------------
       NWT REQUIRED            5 OUTER ITERATIONS 
       AND A TOTAL OF          8 INNER ITERATIONS.
    ------------------------------------------------

 NO OUTPUT CONTROL FOR STRESS PERIOD   16   TIME STEP    6
 
 WELLS WITH REDUCED PUMPING FOR STRESS PERIOD    16 TIME STEP     6
   LAY   ROW   COL         APPL.Q          ACT.Q        GW-HEAD       CELL-BOT
     1     3    50  -0.859951E+00  -0.593471E+00   0.705213E-03   0.000000E+00
     1     5    55  -0.859951E+00  -0.523580E+00   0.636126E-03   0.000000E+00
 
 
 SOLVING FOR HEAD 
                                                   Max.-Head-Change                         Max.-Flux-Residual
  Residual-Control   Outer-Iter.   Inner-Iter.     Column Row Layer    Maximum-Head-Change  Column Row Layer    Maximum-Flux-Residual          L2-NORM 
          0                 1           2            69    1     1      -0.2137515500E-01      69    1    1        -0.2515935500E-02      0.4189705048E-01
          0                 2           2            68    1     1       0.2053917738E-02      69    1    1         0.2515904736E-03      0.4083596842E-02
          0                 3           2            68    1     1      -0.1795683276E-03      69    1    1        -0.2264341970E-04      0.3795621558E-03
          0                 4           1            68    1     1       0.1408144694E-04      70    4    1        -0.1852294574E-05      0.3158222972E-04
          0                 5           1            68    1     1      -0.9743660588E-06      70    4    1         0.1528117313E-06      0.2284665326E-05

    ------------------------------------------------
       NWT REQUIRED            5 OUTER ITERATIONS 
       AND A TOTAL OF          8 INNER ITERATIONS.
    ------------------------------------------------

 NO OUTPUT CONTROL FOR STRESS PERIOD   16   TIME STEP    7
 
 WELLS WITH REDUCED PUMPING FOR STRESS PERIOD    16 TIME STEP     7
   LAY   ROW   COL         APPL.Q          ACT.Q        GW-HEAD       CELL-BOT
     1     3    50  -0.860024E+00  -0.593051E+00   0.704774E-03   0.000000E+00
     1     5    55  -0.860024E+00  -0.523138E+00   0.635698E-03   0.000000E+00
 
 
 SOLVING FOR HEAD 
                                                   Max.-Head-Change                         Max.-Flux-Residual
  Residual-Control   Outer-Iter.   Inner-Iter.     Column Row Layer    Maximum-Head-Change  Column Row Layer    Maximum-Flux-Residual          L2-NORM 
          0                 1           2            69    1     1      -0.2347887291E-01      69    1    1        -0.2513277144E-02      0.4184073883E-01
          0                 2           2            68    1     1       0.2248788566E-02      69    1    1         0.2513240120E-03      0.4077946739E-02
          0                 3           2            68    1     1      -0.1960550561E-03      69    1    1        -0.2261949340E-04      0.3796608873E-03
          0                 4           1            68    1     1       0.1533978341E-04      70    4    1        -0.1921746964E-05      0.3169543667E-04
          0                 5           1            68    1     1      -0.1059706211E-05      70    4    1         0.1602535686E-06      0.2301050665E-05
          0                 6           1            68    1     1       0.6335864314E-07      70    4    1        -0.1050113774E-07      0.1423782889E-06

    ------------------------------------------------
       NWT REQUIRED            6 OUTER ITERATIONS 
       AND A TOTAL OF          9 INNER ITERATIONS.
    ------------------------------------------------

 NO OUTPUT CONTROL FOR STRESS PERIOD   16   TIME STEP    8
 
 WELLS WITH REDUCED PUMPING FOR STRESS PERIOD    16 TIME STEP     8
   LAY   ROW   COL         APPL.Q          ACT.Q        GW-HEAD       CELL-BOT
     1     3    50  -0.860036E+00  -0.592606E+00   0.704354E-03   0.000000E+00
     1     5    55  -0.860036E+00  -0.522660E+00   0.635271E-03   0.000000E+00
 
 
 SOLVING FOR HEAD 
                                                   Max.-Head-Change                         Max.-Flux-Residual
  Residual-Control   Outer-Iter.   Inner-Iter.     Column Row Layer    Maximum-Head-Change  Column Row Layer    Maximum-Flux-Residual          L2-NORM 
          0                 1           2            69    1     1      -0.2578638453E-01      69    1    1        -0.2510367401E-02      0.4178522500E-01
          0                 2           2            68    1     1       0.2461495571E-02      69    1    1         0.2510322981E-03      0.4072244190E-02
          0                 3           2            68    1     1      -0.2139534581E-03      69    1    1        -0.2259330344E-04      0.3797506394E-03
          0                 4           1            68    1     1       0.1669829204E-04      70    4    1        -0.1989338706E-05      0.3180983993E-04
          0                 5           1            68    1     1      -0.1151365366E-05      70    4    1         0.1676353492E-06      0.2317943909E-05
          0                 6           1            68    1     1       0.6875110865E-07      70    4    1        -0.1107730263E-07      0.1438912607E-06

    ------------------------------------------------
       NWT REQUIRED            6 OUTER ITERATIONS 
       AND A TOTAL OF          9 INNER ITERATIONS.
    ------------------------------------------------

 NO OUTPUT CONTROL FOR STRESS PERIOD   16   TIME STEP    9
 
 WELLS WITH REDUCED PUMPING FOR STRESS PERIOD    16 TIME STEP     9
   LAY   ROW   COL         APPL.Q          ACT.Q        GW-HEAD       CELL-BOT
     1     3    50  -0.859964E+00  -0.592120E+00   0.703947E-03   0.000000E+00
     1     5    55  -0.859964E+00  -0.522134E+00   0.634847E-03   0.000000E+00
 
 
 SOLVING FOR HEAD 
                                                   Max.-Head-Change                         Max.-Flux-Residual
  Residual-Control   Outer-Iter.   Inner-Iter.     Column Row Layer    Maximum-Head-Change  Column Row Layer    Maximum-Flux-Residual          L2-NORM 
          0                 1           2            69    1     1      -0.2831669049E-01      69    1    1        -0.2507166177E-02      0.4172953776E-01
          0                 2           2            68    1     1       0.2693625731E-02      69    1    1         0.2507113068E-03      0.4066644039E-02
          0                 3           2            68    1     1      -0.2333785616E-03      69    1    1        -0.2256448865E-04      0.3798301267E-03
          0                 4           1            68    1     1       0.1816402560E-04      70    4    1        -0.2054802630E-05      0.3192438722E-04
          0                 5           1            68    1     1      -0.1249692859E-05      70    4    1         0.1749223042E-06      0.2335206992E-05
          0                 6           1            67    1     1       0.7451522086E-07      70    4    1        -0.1165644647E-07      0.1454651936E-06

    ------------------------------------------------
       NWT REQUIRED            6 OUTER ITERATIONS 
       AND A TOTAL OF          9 INNER ITERATIONS.
    ------------------------------------------------

 NO OUTPUT CONTROL FOR STRESS PERIOD   16   TIME STEP   10
 
 WELLS WITH REDUCED PUMPING FOR STRESS PERIOD    16 TIME STEP    10
   LAY   ROW   COL         APPL.Q          ACT.Q        GW-HEAD       CELL-BOT
     1     3    50  -0.860020E+00  -0.591584E+00   0.703414E-03   0.000000E+00
     1     5    55  -0.860020E+00  -0.521554E+00   0.634308E-03   0.000000E+00
 
 
 SOLVING FOR HEAD 
                                                   Max.-Head-Change                         Max.-Flux-Residual
  Residual-Control   Outer-Iter.   Inner-Iter.     Column Row Layer    Maximum-Head-Change  Column Row Layer    Maximum-Flux-Residual          L2-NORM 
          0                 1           2            69    1     1      -0.3109047710E-01      69    1    1        -0.2503633245E-02      0.4167003263E-01
          0                 2           2            69    1     1       0.2947244653E-02      69    1    1         0.2503569997E-03      0.4060779581E-02
          0                 3           2            68    1     1      -0.2544557441E-03      69    1    1        -0.2253268668E-04      0.3798688014E-03
          0                 4           1            68    1     1       0.1974464595E-04      70    4    1        -0.2117927892E-05      0.3203612437E-04
          0                 5           1            68    1     1      -0.1355060066E-05      70    4    1         0.1820807185E-06      0.2352556176E-05
          0                 6           1            67    1     1       0.8066951469E-07      70    4    1        -0.1223554236E-07      0.1470791291E-06

    ------------------------------------------------
       NWT REQUIRED            6 OUTER ITERATIONS 
       AND A TOTAL OF          9 INNER ITERATIONS.
    ------------------------------------------------

 NO OUTPUT CONTROL FOR STRESS PERIOD   16   TIME STEP   11
 
 WELLS WITH REDUCED PUMPING FOR STRESS PERIOD    16 TIME STEP    11
   LAY   ROW   COL         APPL.Q          ACT.Q        GW-HEAD       CELL-BOT
     1     3    50  -0.860028E+00  -0.590994E+00   0.702860E-03   0.000000E+00
     1     5    55  -0.860028E+00  -0.520916E+00   0.633744E-03   0.000000E+00
 
 
 SOLVING FOR HEAD 
                                                   Max.-Head-Change                         Max.-Flux-Residual
  Residual-Control   Outer-Iter.   Inner-Iter.     Column Row Layer    Maximum-Head-Change  Column Row Layer    Maximum-Flux-Residual          L2-NORM 
          0                 1           2            69    1     1      -0.3413024165E-01      69    1    1        -0.2499731054E-02      0.4160550993E-01
          0                 2           2            69    1     1       0.3224198513E-02      69    1    1         0.2499656042E-03      0.4054477925E-02
          0                 3           2            68    1     1      -0.2773217917E-03      69    1    1        -0.2249755922E-04      0.3798496615E-03
          0                 4           1            68    1     1       0.2144850852E-04      70    4    1        -0.2178513881E-05      0.3214307078E-04
          0                 5           1            68    1     1      -0.1467864450E-05      70    4    1         0.1890771273E-06      0.2369763517E-05
          0                 6           1            67    1     1       0.8721714154E-07      70    4    1        -0.1281141060E-07      0.1487141544E-06

    ------------------------------------------------
       NWT REQUIRED            6 OUTER ITERATIONS 
       AND A TOTAL OF          9 INNER ITERATIONS.
    ------------------------------------------------

 NO OUTPUT CONTROL FOR STRESS PERIOD   16   TIME STEP   12
 
 WELLS WITH REDUCED PUMPING FOR STRESS PERIOD    16 TIME STEP    12
   LAY   ROW   COL         APPL.Q          ACT.Q        GW-HEAD       CELL-BOT
     1     3    50  -0.859967E+00  -0.590345E+00   0.702296E-03   0.000000E+00
     1     5    55  -0.859967E+00  -0.520216E+00   0.633161E-03   0.000000E+00
 
 
 SOLVING FOR HEAD 
                                                   Max.-Head-Change                         Max.-Flux-Residual
  Residual-Control   Outer-Iter.   Inner-Iter.     Column Row Layer    Maximum-Head-Change  Column Row Layer    Maximum-Flux-Residual          L2-NORM 
          0                 1           2            69    1     1      -0.3746024534E-01      69    1    1        -0.2495423244E-02      0.4152559856E-01
          0                 2           2            69    1     1       0.3526267894E-02      69    1    1         0.2495334586E-03      0.4047934480E-02
          0                 3           2            68    1     1      -0.3021241327E-03      69    1    1        -0.2245877849E-04      0.3797807970E-03
          0                 4           1            68    1     1       0.2328468566E-04      70    4    1        -0.2235212335E-05      0.3224434170E-04
          0                 5           1            68    1     1      -0.1588532561E-05      70    4    1         0.1957883686E-06      0.2386641013E-05
          0                 6           1            67    1     1       0.9417155824E-07      70    4    1        -0.1337564015E-07      0.1503519056E-06

    ------------------------------------------------
       NWT REQUIRED            6 OUTER ITERATIONS 
       AND A TOTAL OF          9 INNER ITERATIONS.
    ------------------------------------------------

 NO OUTPUT CONTROL FOR STRESS PERIOD   16   TIME STEP   13
 
 WELLS WITH REDUCED PUMPING FOR STRESS PERIOD    16 TIME STEP    13
   LAY   ROW   COL         APPL.Q          ACT.Q        GW-HEAD       CELL-BOT
     1     3    50  -0.859974E+00  -0.589634E+00   0.701633E-03   0.000000E+00
     1     5    55  -0.859974E+00  -0.519455E+00   0.632490E-03   0.000000E+00
 
 
 SOLVING FOR HEAD 
                                                   Max.-Head-Change                         Max.-Flux-Residual
  Residual-Control   Outer-Iter.   Inner-Iter.     Column Row Layer    Maximum-Head-Change  Column Row Layer    Maximum-Flux-Residual          L2-NORM 
          0                 1           2            69    1     1      -0.4110701805E-01      69    1    1        -0.2490672377E-02      0.4143437337E-01
          0                 2           2            69    1     1       0.3855813685E-02      69    1    1         0.2490567998E-03      0.4039631148E-02
          0                 3           2            71    7     1      -0.3291459636E-03      69    1    1        -0.2241600683E-04      0.3795256205E-03
          0                 4           1            68    1     1       0.2526319730E-04      70    4    1        -0.2289045094E-05      0.3232982914E-04
          0                 5           1            68    1     1      -0.1717525272E-05      70    4    1         0.2022728243E-06      0.2402418619E-05
          0                 6           1            67    1     1       0.1015465801E-06      70    4    1        -0.1392985816E-07      0.1519399232E-06

    ------------------------------------------------
       NWT REQUIRED            6 OUTER ITERATIONS 
       AND A TOTAL OF          9 INNER ITERATIONS.
    ------------------------------------------------

 NO OUTPUT CONTROL FOR STRESS PERIOD   16   TIME STEP   14
 
 WELLS WITH REDUCED PUMPING FOR STRESS PERIOD    16 TIME STEP    14
   LAY   ROW   COL         APPL.Q          ACT.Q        GW-HEAD       CELL-BOT
     1     3    50  -0.860018E+00  -0.588886E+00   0.700910E-03   0.000000E+00
     1     5    55  -0.860018E+00  -0.518702E+00   0.631806E-03   0.000000E+00
 
 
 SOLVING FOR HEAD 
                                                   Max.-Head-Change                         Max.-Flux-Residual
  Residual-Control   Outer-Iter.   Inner-Iter.     Column Row Layer    Maximum-Head-Change  Column Row Layer    Maximum-Flux-Residual          L2-NORM 
          0                 1           2            69    1     1      -0.4509911666E-01      69    1    1        -0.2485438185E-02      0.4133132867E-01
          0                 2           2            69    1     1       0.4215284550E-02      69    1    1         0.2485315745E-03      0.4029150679E-02
          0                 3           2            71    7     1      -0.3587672343E-03      69    1    1        -0.2236888087E-04      0.3790759081E-03
          0                 4           1            71    7     1       0.2740600316E-04      70    4    1        -0.2339910010E-05      0.3239866769E-04
          0                 5           1            68    1     1      -0.1855338872E-05      70    4    1         0.2085063873E-06      0.2416904523E-05
          0                 6           1            67    1     1       0.1093562092E-06      70    4    1        -0.1447118159E-07      0.1534575761E-06

    ------------------------------------------------
       NWT REQUIRED            6 OUTER ITERATIONS 
       AND A TOTAL OF          9 INNER ITERATIONS.
    ------------------------------------------------

 NO OUTPUT CONTROL FOR STRESS PERIOD   16   TIME STEP   15
 
 WELLS WITH REDUCED PUMPING FOR STRESS PERIOD    16 TIME STEP    15
   LAY   ROW   COL         APPL.Q          ACT.Q        GW-HEAD       CELL-BOT
     1     3    50  -0.860018E+00  -0.588315E+00   0.700381E-03   0.000000E+00
     1     5    55  -0.860018E+00  -0.518069E+00   0.631250E-03   0.000000E+00
 
 
 SOLVING FOR HEAD 
                                                   Max.-Head-Change                         Max.-Flux-Residual
  Residual-Control   Outer-Iter.   Inner-Iter.     Column Row Layer    Maximum-Head-Change  Column Row Layer    Maximum-Flux-Residual          L2-NORM 
          0                 1           2            69    1     1      -0.4946731948E-01      69    1    1        -0.2479676484E-02      0.4122608592E-01
          0                 2           2            69    1     1       0.4607324494E-02      69    1    1         0.2479533348E-03      0.4018509523E-02
          0                 3           2            71    7     1      -0.3909601384E-03      69    1    1        -0.2231700180E-04      0.3786055138E-03
          0                 4           1            71    7     1       0.2975236561E-04      70    4    1        -0.2387674225E-05      0.3246373610E-04
          0                 5           1            68    1     1      -0.2002505252E-05      70    4    1         0.2144634372E-06      0.2430823245E-05
          0                 6           1            67    1     1       0.1176150821E-06      70    4    1        -0.1499669189E-07      0.1549364670E-06

    ------------------------------------------------
       NWT REQUIRED            6 OUTER ITERATIONS 
       AND A TOTAL OF          9 INNER ITERATIONS.
    ------------------------------------------------

 NO OUTPUT CONTROL FOR STRESS PERIOD   16   TIME STEP   16
 
 WELLS WITH REDUCED PUMPING FOR STRESS PERIOD    16 TIME STEP    16
   LAY   ROW   COL         APPL.Q          ACT.Q        GW-HEAD       CELL-BOT
     1     3    50  -0.860018E+00  -0.587569E+00   0.699691E-03   0.000000E+00
     1     5    55  -0.860018E+00  -0.517204E+00   0.630492E-03   0.000000E+00
 
 
 SOLVING FOR HEAD 
                                                   Max.-Head-Change                         Max.-Flux-Residual
  Residual-Control   Outer-Iter.   Inner-Iter.     Column Row Layer    Maximum-Head-Change  Column Row Layer    Maximum-Flux-Residual          L2-NORM 
          0                 1           2            69    1     1      -0.5424473065E-01      69    1    1        -0.2473338568E-02      0.4110160278E-01
          0                 2           2            71    7     1       0.5035096842E-02      69    1    1         0.2473171766E-03      0.4009517302E-02
          0                 3           2            71    7     1      -0.4259469692E-03      69    1    1        -0.2225992981E-04      0.3785330742E-03
          0                 4           1            71    7     1       0.3228871102E-04      70    4    1        -0.2432218972E-05      0.3256959359E-04
          0                 5           1            71    7     1      -0.2161220804E-05      70    4    1         0.2201204250E-06      0.2447245849E-05
          0                 6           1            67    1     1       0.1263390306E-06      70    4    1        -0.1550355577E-07      0.1565244574E-06

    ------------------------------------------------
       NWT REQUIRED            6 OUTER ITERATIONS 
       AND A TOTAL OF          9 INNER ITERATIONS.
    ------------------------------------------------

 NO OUTPUT CONTROL FOR STRESS PERIOD   16   TIME STEP   17
 
 WELLS WITH REDUCED PUMPING FOR STRESS PERIOD    16 TIME STEP    17
   LAY   ROW   COL         APPL.Q          ACT.Q        GW-HEAD       CELL-BOT
     1     3    50  -0.859990E+00  -0.586655E+00   0.698863E-03   0.000000E+00
     1     5    55  -0.859990E+00  -0.516193E+00   0.629621E-03   0.000000E+00
 
 
 SOLVING FOR HEAD 
                                                   Max.-Head-Change                         Max.-Flux-Residual
  Residual-Control   Outer-Iter.   Inner-Iter.     Column Row Layer    Maximum-Head-Change  Column Row Layer    Maximum-Flux-Residual          L2-NORM 
          0                 1           2            69    1     1      -0.5946720096E-01      69    1    1        -0.2466370930E-02      0.4087759406E-01
          0                 2           2            71    7     1       0.5504336458E-02      69    1    1         0.2466177258E-03      0.4051025379E-02
          0                 3           2            71    7     1      -0.4639684104E-03      69    1    1        -0.2219718258E-04      0.3854559367E-03
          0                 4           1            71    7     1       0.3503082600E-04      70    4    1        -0.2473451280E-05      0.3325783472E-04
          0                 5           1            71    7     1      -0.2334008729E-05      70    4    1         0.2254560325E-06      0.2499467841E-05
          0                 6           1            67    1     1       0.1356007979E-06      70    4    1        -0.1598821697E-07      0.1597941458E-06

    ------------------------------------------------
       NWT REQUIRED            6 OUTER ITERATIONS 
       AND A TOTAL OF          9 INNER ITERATIONS.
    ------------------------------------------------

 NO OUTPUT CONTROL FOR STRESS PERIOD   16   TIME STEP   18
 
 WELLS WITH REDUCED PUMPING FOR STRESS PERIOD    16 TIME STEP    18
   LAY   ROW   COL         APPL.Q          ACT.Q        GW-HEAD       CELL-BOT
     1     3    50  -0.859985E+00  -0.585619E+00   0.697908E-03   0.000000E+00
     1     5    55  -0.859985E+00  -0.515062E+00   0.628632E-03   0.000000E+00
 
 
 SOLVING FOR HEAD 
                                                   Max.-Head-Change                         Max.-Flux-Residual
  Residual-Control   Outer-Iter.   Inner-Iter.     Column Row Layer    Maximum-Head-Change  Column Row Layer    Maximum-Flux-Residual          L2-NORM 
          0                 1           2            69    1     1      -0.6517197384E-01      69    1    1        -0.2458727396E-02      0.3961869318E-01
          0                 2           2            71    7     1       0.6014976345E-02      69    1    1         0.2458502837E-03      0.3918977680E-02
          0                 3           2            71    7     1      -0.5051961216E-03      69    1    1        -0.2212833962E-04      0.3740822787E-03
          0                 4           1            71    7     1       0.3798995685E-04      70    4    1        -0.2511096975E-05      0.3244881175E-04
          0                 5           1            71    7     1      -0.2518934072E-05      70    4    1         0.2304383884E-06      0.2449704437E-05
          0                 6           1            67    1     1       0.1453437112E-06      70    4    1        -0.1644881742E-07      0.1572112790E-06

    ------------------------------------------------
       NWT REQUIRED            6 OUTER ITERATIONS 
       AND A TOTAL OF          9 INNER ITERATIONS.
    ------------------------------------------------

 NO OUTPUT CONTROL FOR STRESS PERIOD   16   TIME STEP   19
 
 WELLS WITH REDUCED PUMPING FOR STRESS PERIOD    16 TIME STEP    19
   LAY   ROW   COL         APPL.Q          ACT.Q        GW-HEAD       CELL-BOT
     1     3    50  -0.859981E+00  -0.584474E+00   0.696852E-03   0.000000E+00
     1     5    55  -0.859981E+00  -0.513815E+00   0.627542E-03   0.000000E+00
 
 
 SOLVING FOR HEAD 
                                                   Max.-Head-Change                         Max.-Flux-Residual
  Residual-Control   Outer-Iter.   Inner-Iter.     Column Row Layer    Maximum-Head-Change  Column Row Layer    Maximum-Flux-Residual          L2-NORM 
          0                 1           2            69    1     1      -0.7133953529E-01      69    1    1        -0.2450318014E-02      0.3881622456E-01
          0                 2           2            69    7     1       0.6555900288E-02      69    1    1         0.2450036286E-03      0.3828299817E-02
          0                 3           2            69    7     1      -0.5461794613E-03      74    4    1         0.2238286295E-04      0.3660299876E-03
          0                 4           1            71    7     1       0.4084970036E-04      74    4    1        -0.2590631238E-05      0.3188511470E-04
          0                 5           1            67    1     1      -0.2697506780E-05      70    4    1         0.2340774987E-06      0.2415942816E-05
          0                 6           1            67    1     1       0.1556080963E-06      70    4    1        -0.1681709350E-07      0.1555688982E-06

    ------------------------------------------------
       NWT REQUIRED            6 OUTER ITERATIONS 
       AND A TOTAL OF          9 INNER ITERATIONS.
    ------------------------------------------------

 NO OUTPUT CONTROL FOR STRESS PERIOD   16   TIME STEP   20
 
 WELLS WITH REDUCED PUMPING FOR STRESS PERIOD    16 TIME STEP    20
   LAY   ROW   COL         APPL.Q          ACT.Q        GW-HEAD       CELL-BOT
     1     3    50  -0.860010E+00  -0.583218E+00   0.695675E-03   0.000000E+00
     1     5    55  -0.860010E+00  -0.512448E+00   0.626332E-03   0.000000E+00
 
 
 SOLVING FOR HEAD 
                                                   Max.-Head-Change                         Max.-Flux-Residual
  Residual-Control   Outer-Iter.   Inner-Iter.     Column Row Layer    Maximum-Head-Change  Column Row Layer    Maximum-Flux-Residual          L2-NORM 
          0                 1           2            68    1     1      -0.7736775027E-01      69    1    1        -0.2439034098E-02      0.3816226276E-01
          0                 2           2            67    1     1       0.7084505607E-02      69    1    1         0.2438188323E-03      0.3760833911E-02
          0                 3           2            67    1     1      -0.5888332905E-03      70    4    1         0.2500797687E-04      0.3603495394E-03
          0                 4           1            67    1     1       0.4392550942E-04      70    4    1        -0.2925310630E-05      0.3151164636E-04
          0                 5           1            67    1     1      -0.2895037683E-05      70    4    1         0.2574030962E-06      0.2394054553E-05
          0                 6           1            67    1     1       0.1661614902E-06      70    4    1        -0.1799994287E-07      0.1545620512E-06

    ------------------------------------------------
       NWT REQUIRED            6 OUTER ITERATIONS 
       AND A TOTAL OF          9 INNER ITERATIONS.
    ------------------------------------------------

 NO OUTPUT CONTROL FOR STRESS PERIOD   16   TIME STEP   21
 
 WELLS WITH REDUCED PUMPING FOR STRESS PERIOD    16 TIME STEP    21
   LAY   ROW   COL         APPL.Q          ACT.Q        GW-HEAD       CELL-BOT
     1     3    50  -0.860000E+00  -0.581848E+00   0.694419E-03   0.000000E+00
     1     5    55  -0.860000E+00  -0.510957E+00   0.625033E-03   0.000000E+00
 
 
 SOLVING FOR HEAD 
                                                   Max.-Head-Change                         Max.-Flux-Residual
  Residual-Control   Outer-Iter.   Inner-Iter.     Column Row Layer    Maximum-Head-Change  Column Row Layer    Maximum-Flux-Residual          L2-NORM 
          0                 1           2            66    1     1      -0.8247806906E-01      68    1    1        -0.2405454959E-02      0.3756628552E-01
          0                 2           2            66    1     1       0.7522688561E-02      68    7    1         0.2403774937E-03      0.3701251845E-02
          0                 3           2            66    1     1      -0.6229089360E-03      68    4    1         0.2807070554E-04      0.3552881081E-03
          0                 4           1            65    1     1       0.4633824425E-04      68    4    1        -0.3133990262E-05      0.3117121953E-04
          0                 5           1            65    1     1      -0.3051287204E-05      68    4    1         0.2692001981E-06      0.2372394363E-05
          0                 6           1            65    1     1       0.1751296859E-06      68    4    1        -0.1854541942E-07      0.1534708492E-06

    ------------------------------------------------
       NWT REQUIRED            6 OUTER ITERATIONS 
       AND A TOTAL OF          9 INNER ITERATIONS.
    ------------------------------------------------

 NO OUTPUT CONTROL FOR STRESS PERIOD   16   TIME STEP   22
 
 WELLS WITH REDUCED PUMPING FOR STRESS PERIOD    16 TIME STEP    22
   LAY   ROW   COL         APPL.Q          ACT.Q        GW-HEAD       CELL-BOT
     1     3    50  -0.859994E+00  -0.580350E+00   0.693043E-03   0.000000E+00
     1     5    55  -0.859994E+00  -0.509329E+00   0.623612E-03   0.000000E+00
 
 
 SOLVING FOR HEAD 
                                                   Max.-Head-Change                         Max.-Flux-Residual
  Residual-Control   Outer-Iter.   Inner-Iter.     Column Row Layer    Maximum-Head-Change  Column Row Layer    Maximum-Flux-Residual          L2-NORM 
          0                 1           3            68    1     1      -0.8664136694E-01      66    1    1        -0.2331969368E-02      0.3701035575E-01
          0                 2           2            67    1     1       0.7856292372E-02      66    1    1         0.2330065292E-03      0.3644753964E-02
          0                 3           2            65    1     1      -0.6494215618E-03      66    4    1         0.2706906261E-04      0.3504950627E-03
          0                 4           1            65    1     1       0.4825373613E-04      66    4    1        -0.3029609500E-05      0.3085398636E-04
          0                 5           1            65    1     1      -0.3168481203E-05      66    4    1         0.2606572664E-06      0.2351012204E-05
          0                 6           1            65    1     1       0.1815351271E-06      66    4    1        -0.1799107707E-07      0.1523191965E-06

    ------------------------------------------------
       NWT REQUIRED            6 OUTER ITERATIONS 
       AND A TOTAL OF         10 INNER ITERATIONS.
    ------------------------------------------------

 NO OUTPUT CONTROL FOR STRESS PERIOD   16   TIME STEP   23
 
 WELLS WITH REDUCED PUMPING FOR STRESS PERIOD    16 TIME STEP    23
   LAY   ROW   COL         APPL.Q          ACT.Q        GW-HEAD       CELL-BOT
     1     3    50  -0.859989E+00  -0.578725E+00   0.691552E-03   0.000000E+00
     1     5    55  -0.859989E+00  -0.507558E+00   0.622068E-03   0.000000E+00
 
 
 SOLVING FOR HEAD 
                                                   Max.-Head-Change                         Max.-Flux-Residual
  Residual-Control   Outer-Iter.   Inner-Iter.     Column Row Layer    Maximum-Head-Change  Column Row Layer    Maximum-Flux-Residual          L2-NORM 
          0                 1           3            69    1     1      -0.9421228939E-01      68    1    1        -0.2228204700E-02      0.3649348386E-01
          0                 2           2            70    7     1       0.8525727971E-02      68    1    1         0.2227500265E-03      0.3591357090E-02
          0                 3           2            71    7     1      -0.7010800998E-03      63    4    1         0.2653294171E-04      0.3458216441E-03
          0                 4           1            71    7     1       0.5148351247E-04      63    4    1        -0.2918850524E-05      0.3053549863E-04
          0                 5           1            71    7     1      -0.3298548402E-05      64    4    1         0.2493179343E-06      0.2327620335E-05
          0                 6           1            63    1     1       0.1857899804E-06      68    4    1        -0.1724440324E-07      0.1509531009E-06

    ------------------------------------------------
       NWT REQUIRED            6 OUTER ITERATIONS 
       AND A TOTAL OF         10 INNER ITERATIONS.
    ------------------------------------------------

 NO OUTPUT CONTROL FOR STRESS PERIOD   16   TIME STEP   24
 
 WELLS WITH REDUCED PUMPING FOR STRESS PERIOD    16 TIME STEP    24
   LAY   ROW   COL         APPL.Q          ACT.Q        GW-HEAD       CELL-BOT
     1     3    50  -0.859996E+00  -0.576964E+00   0.689930E-03   0.000000E+00
     1     5    55  -0.859996E+00  -0.505636E+00   0.620387E-03   0.000000E+00
 
 
 SOLVING FOR HEAD 
                                                   Max.-Head-Change                         Max.-Flux-Residual
  Residual-Control   Outer-Iter.   Inner-Iter.     Column Row Layer    Maximum-Head-Change  Column Row Layer    Maximum-Flux-Residual          L2-NORM 
          0                 1           3            70    1     1      -0.1028376061E+00      69    1    1        -0.2203395413E-02      0.3595514428E-01
          0                 2           2            71    7     1       0.9292571089E-02      69    1    1         0.2202876937E-03      0.3549088078E-02
          0                 3           2            71    7     1      -0.7614834754E-03      61    4    1         0.2457619495E-04      0.3434772162E-03
          0                 4           1            71    7     1       0.5566384362E-04      69    4    1        -0.2668215386E-05      0.3047220815E-04
          0                 5           1            71    7     1      -0.3532624243E-05      68    4    1         0.2429794339E-06      0.2322942462E-05
          0                 6           1            71    7     1       0.1950040811E-06      68    4    1        -0.1751069156E-07      0.1505863772E-06

    ------------------------------------------------
       NWT REQUIRED            6 OUTER ITERATIONS 
       AND A TOTAL OF         10 INNER ITERATIONS.
    ------------------------------------------------

 NO OUTPUT CONTROL FOR STRESS PERIOD   16   TIME STEP   25
 
 WELLS WITH REDUCED PUMPING FOR STRESS PERIOD    16 TIME STEP    25
   LAY   ROW   COL         APPL.Q          ACT.Q        GW-HEAD       CELL-BOT
     1     3    50  -0.860009E+00  -0.575060E+00   0.688176E-03   0.000000E+00
     1     5    55  -0.860009E+00  -0.503557E+00   0.618566E-03   0.000000E+00
 
 
 SOLVING FOR HEAD 
                                                   Max.-Head-Change                         Max.-Flux-Residual
  Residual-Control   Outer-Iter.   Inner-Iter.     Column Row Layer    Maximum-Head-Change  Column Row Layer    Maximum-Flux-Residual          L2-NORM 
          0                 1           3            70    1     1      -0.1123158525E+00      69    1    1        -0.2186876662E-02      0.3542121282E-01
          0                 2           2            71    7     1       0.1012762038E-01      69    1    1         0.2186320406E-03      0.3556037110E-02
          0                 3           2            71    7     1      -0.8271664223E-03      59    4    1         0.2179164553E-04      0.3471622743E-03
          0                 4           1            71    7     1       0.6019792031E-04      69    4    1        -0.2681315859E-05      0.3087148178E-04
          0                 5           1            71    7     1      -0.3782628330E-05      68    4    1         0.2453073726E-06      0.2344959569E-05
          0                 6           1            71    7     1       0.2069915264E-06      68    4    1        -0.1775050151E-07      0.1514404196E-06

    ------------------------------------------------
       NWT REQUIRED            6 OUTER ITERATIONS 
       AND A TOTAL OF         10 INNER ITERATIONS.
    ------------------------------------------------

 NO OUTPUT CONTROL FOR STRESS PERIOD   16   TIME STEP   26
 
 WELLS WITH REDUCED PUMPING FOR STRESS PERIOD    16 TIME STEP    26
   LAY   ROW   COL         APPL.Q          ACT.Q        GW-HEAD       CELL-BOT
     1     3    50  -0.860005E+00  -0.573019E+00   0.686310E-03   0.000000E+00
     1     5    55  -0.860005E+00  -0.501321E+00   0.616620E-03   0.000000E+00
 
 
 SOLVING FOR HEAD 
                                                   Max.-Head-Change                         Max.-Flux-Residual
  Residual-Control   Outer-Iter.   Inner-Iter.     Column Row Layer    Maximum-Head-Change  Column Row Layer    Maximum-Flux-Residual          L2-NORM 
          0                 1           3            70    1     1      -0.1225753233E+00      70    1    1        -0.2171135013E-02      0.3394293361E-01
          0                 2           2            70    7     1       0.1102735936E-01      70    1    1         0.2170547049E-03      0.3386252900E-02
          0                 3           2            71    7     1      -0.8976591316E-03      79    4    1         0.2437187900E-04      0.3317110176E-03
          0                 4           1            71    7     1       0.6505263431E-04      78    4    1        -0.2749104178E-05      0.2970314432E-04
          0                 5           1            71    7     1      -0.4042826574E-05      68    4    1         0.2477792691E-06      0.2259657700E-05
          0                 6           1            71    7     1       0.2190884486E-06      68    4    1        -0.1800087013E-07      0.1461736762E-06

    ------------------------------------------------
       NWT REQUIRED            6 OUTER ITERATIONS 
       AND A TOTAL OF         10 INNER ITERATIONS.
    ------------------------------------------------

 NO OUTPUT CONTROL FOR STRESS PERIOD   16   TIME STEP   27
 
 WELLS WITH REDUCED PUMPING FOR STRESS PERIOD    16 TIME STEP    27
   LAY   ROW   COL         APPL.Q          ACT.Q        GW-HEAD       CELL-BOT
     1     3    50  -0.860002E+00  -0.570901E+00   0.684377E-03   0.000000E+00
     1     5    55  -0.860002E+00  -0.498983E+00   0.614586E-03   0.000000E+00
 
 
 SOLVING FOR HEAD 
                                                   Max.-Head-Change                         Max.-Flux-Residual
  Residual-Control   Outer-Iter.   Inner-Iter.     Column Row Layer    Maximum-Head-Change  Column Row Layer    Maximum-Flux-Residual          L2-NORM 
          0                 1           3            69    1     1      -0.1331689247E+00      70    1    1        -0.2154336941E-02      0.3303763392E-01
          0                 2           2            69    7     1       0.1188936660E-01      70    7    1         0.2153391915E-03      0.3287063532E-02
          0                 3           2            69    7     1      -0.9621385732E-03      74    4    1         0.2568994264E-04      0.3230595756E-03
          0                 4           1            69    7     1       0.6934617243E-04      74    4    1        -0.2962296101E-05      0.2907828702E-04
          0                 5           1            69    7     1      -0.4283268411E-05      74    4    1         0.2626588795E-06      0.2209229572E-05
          0                 6           1            69    7     1       0.2316218150E-06      74    4    1        -0.1848066233E-07      0.1428897003E-06

    ------------------------------------------------
       NWT REQUIRED            6 OUTER ITERATIONS 
       AND A TOTAL OF         10 INNER ITERATIONS.
    ------------------------------------------------

 NO OUTPUT CONTROL FOR STRESS PERIOD   16   TIME STEP   28
 
 WELLS WITH REDUCED PUMPING FOR STRESS PERIOD    16 TIME STEP    28
   LAY   ROW   COL         APPL.Q          ACT.Q        GW-HEAD       CELL-BOT
     1     3    50  -0.860002E+00  -0.568922E+00   0.682571E-03   0.000000E+00
     1     5    55  -0.860002E+00  -0.496758E+00   0.612650E-03   0.000000E+00
 
 
 SOLVING FOR HEAD 
                                                   Max.-Head-Change                         Max.-Flux-Residual
  Residual-Control   Outer-Iter.   Inner-Iter.     Column Row Layer    Maximum-Head-Change  Column Row Layer    Maximum-Flux-Residual          L2-NORM 
          0                 1           3            68    1     1      -0.1422022889E+00      69    1    1        -0.2129152278E-02      0.3231052751E-01
          0                 2           2            67    7     1       0.1260262429E-01      69    1    1         0.2126990134E-03      0.3210982366E-02
          0                 3           2            67    7     1      -0.1010693522E-02      71    4    1         0.2712255615E-04      0.3164083327E-03
          0                 4           1            67    1     1       0.7225526550E-04      71    4    1        -0.3084004472E-05      0.2859586226E-04
          0                 5           1            67    1     1      -0.4436871791E-05      70    4    1         0.2671784554E-06      0.2164117783E-05
          0                 6           1            65    1     1       0.2407136390E-06      70    4    1        -0.1891326207E-07      0.1397685732E-06

    ------------------------------------------------
       NWT REQUIRED            6 OUTER ITERATIONS 
       AND A TOTAL OF         10 INNER ITERATIONS.
    ------------------------------------------------

 NO OUTPUT CONTROL FOR STRESS PERIOD   16   TIME STEP   29
 
 WELLS WITH REDUCED PUMPING FOR STRESS PERIOD    16 TIME STEP    29
   LAY   ROW   COL         APPL.Q          ACT.Q        GW-HEAD       CELL-BOT
     1     3    50  -0.859994E+00  -0.567628E+00   0.681396E-03   0.000000E+00
     1     5    55  -0.859994E+00  -0.495208E+00   0.611306E-03   0.000000E+00
 
 
 SOLVING FOR HEAD 
                                                   Max.-Head-Change                         Max.-Flux-Residual
  Residual-Control   Outer-Iter.   Inner-Iter.     Column Row Layer    Maximum-Head-Change  Column Row Layer    Maximum-Flux-Residual          L2-NORM 
          0                 1           3            66    1     1      -0.1485844714E+00      68    1    1        -0.2068406089E-02      0.3148900484E-01
          0                 2           2            66    1     1       0.1305699850E-01      68    1    1         0.2065008965E-03      0.3129217736E-02
          0                 3           2            65    1     1      -0.1040999233E-02      68    4    1         0.3112983019E-04      0.3097382882E-03
          0                 4           1            65    1     1       0.7413691864E-04      68    4    1        -0.3478514015E-05      0.2813402805E-04
          0                 5           1            65    1     1      -0.4554261838E-05      68    4    1         0.3016371988E-06      0.2118379880E-05
          0                 6           1            65    1     1       0.2485181676E-06      68    4    1        -0.2091932672E-07      0.1365555426E-06

    ------------------------------------------------
       NWT REQUIRED            6 OUTER ITERATIONS 
       AND A TOTAL OF         10 INNER ITERATIONS.
    ------------------------------------------------

 NO OUTPUT CONTROL FOR STRESS PERIOD   16   TIME STEP   30
 
 WELLS WITH REDUCED PUMPING FOR STRESS PERIOD    16 TIME STEP    30
   LAY   ROW   COL         APPL.Q          ACT.Q        GW-HEAD       CELL-BOT
     1     3    50  -0.859995E+00  -0.565743E+00   0.679679E-03   0.000000E+00
     1     5    55  -0.859995E+00  -0.492965E+00   0.609355E-03   0.000000E+00
 



 STREAM LISTING     PERIOD     16   STEP       30

 LAYER ROW COL. STREAM  RCH.   FLOW INTO    STREAM     FLOW OUT OF   OVRLND.    DIRECT     STREAM      STREAM      STREAM     STREAM  STREAMBED   FLOW TO   CHNG. UNSAT. 
                SEG.NO.  NO.   STRM. RCH.    LOSS       STRM. RCH.   RUNOFF     PRECIP       ET         HEAD        DEPTH      WIDTH  CONDCTNC.   WAT. TAB.

   1    4    1     1     1    2.2410E+01  5.7805E-03   2.2404E+01  0.000E+00  0.000E+00  0.000E+00  1.43421E+02  3.571E+00  6.283E+00  1.420E-03  4.540E-03  1.241E-03
   1    4    2     1     2    2.2404E+01  5.7791E-03   2.2398E+01  0.000E+00  0.000E+00  0.000E+00  1.43120E+02  3.570E+00  6.281E+00  1.420E-03  4.539E-03  1.240E-03
   1    4    3     1     3    2.2398E+01  5.7777E-03   2.2393E+01  0.000E+00  0.000E+00  0.000E+00  1.42820E+02  3.570E+00  6.280E+00  1.420E-03  4.538E-03  1.240E-03
   1    4    4     1     4    2.2393E+01  5.7763E-03   2.2387E+01  0.000E+00  0.000E+00  0.000E+00  1.42520E+02  3.570E+00  6.278E+00  1.419E-03  4.537E-03  1.239E-03
   1    4    5     1     5    2.2387E+01  5.7749E-03   2.2381E+01  0.000E+00  0.000E+00  0.000E+00  1.42219E+02  3.569E+00  6.277E+00  1.419E-03  4.536E-03  1.239E-03
   1    4    6     1     6    2.2381E+01  5.7735E-03   2.2375E+01  0.000E+00  0.000E+00  0.000E+00  1.41919E+02  3.569E+00  6.276E+00  1.419E-03  4.534E-03  1.239E-03
   1    4    7     1     7    2.2375E+01  5.7721E-03   2.2370E+01  0.000E+00  0.000E+00  0.000E+00  1.41619E+02  3.569E+00  6.274E+00  1.419E-03  4.533E-03  1.240E-03
   1    4    8     1     8    2.2370E+01  5.7707E-03   2.2364E+01  0.000E+00  0.000E+00  0.000E+00  1.41318E+02  3.568E+00  6.273E+00  1.418E-03  4.531E-03  1.240E-03
   1    4    9     1     9    2.2364E+01  5.7693E-03   2.2358E+01  0.000E+00  0.000E+00  0.000E+00  1.41018E+02  3.568E+00  6.271E+00  1.418E-03  4.529E-03  1.241E-03
   1    4   10     1    10    2.2358E+01  5.7678E-03   2.2352E+01  0.000E+00  0.000E+00  0.000E+00  1.40717E+02  3.567E+00  6.270E+00  1.418E-03  4.527E-03  1.241E-03
   1    4   11     1    11    2.2352E+01  5.7664E-03   2.2346E+01  0.000E+00  0.000E+00  0.000E+00  1.40417E+02  3.567E+00  6.268E+00  1.418E-03  4.524E-03  1.242E-03
   1    4   12     1    12    2.2346E+01  5.7650E-03   2.2341E+01  0.000E+00  0.000E+00  0.000E+00  1.40117E+02  3.567E+00  6.267E+00  1.418E-03  4.522E-03  1.243E-03
   1    4   13     1    13    2.2341E+01  5.7636E-03   2.2335E+01  0.000E+00  0.000E+00  0.000E+00  1.39816E+02  3.566E+00  6.266E+00  1.417E-03  4.519E-03  1.245E-03
   1    4   14     1    14    2.2335E+01  5.7622E-03   2.2329E+01  0.000E+00  0.000E+00  0.000E+00  1.39516E+02  3.566E+00  6.264E+00  1.417E-03  4.516E-03  1.246E-03
   1    4   15     1    15    2.2329E+01  5.7608E-03   2.2323E+01  0.000E+00  0.000E+00  0.000E+00  1.39216E+02  3.566E+00  6.263E+00  1.417E-03  4.514E-03  1.247E-03
   1    4   16     1    16    2.2323E+01  5.7594E-03   2.2318E+01  0.000E+00  0.000E+00  0.000E+00  1.38915E+02  3.565E+00  6.261E+00  1.417E-03  4.527E-03  1.233E-03
   1    4   17     1    17    2.2318E+01  5.7580E-03   2.2312E+01  0.000E+00  0.000E+00  0.000E+00  1.38615E+02  3.565E+00  6.260E+00  1.416E-03  4.529E-03  1.229E-03
   1    4   18     1    18    2.2312E+01  5.7566E-03   2.2306E+01  0.000E+00  0.000E+00  0.000E+00  1.38315E+02  3.565E+00  6.259E+00  1.416E-03  4.526E-03  1.231E-03
   1    4   19     1    19    2.2306E+01  5.7552E-03   2.2300E+01  0.000E+00  0.000E+00  0.000E+00  1.38014E+02  3.564E+00  6.257E+00  1.416E-03  4.523E-03  1.233E-03
   1    4   20     1    20    2.2300E+01  5.7538E-03   2.2295E+01  0.000E+00  0.000E+00  0.000E+00  1.37714E+02  3.564E+00  6.256E+00  1.416E-03  4.519E-03  1.235E-03
   1    4   21     1    21    2.2295E+01  5.7524E-03   2.2289E+01  0.000E+00  0.000E+00  0.000E+00  1.37414E+02  3.564E+00  6.254E+00  1.416E-03  4.516E-03  1.237E-03
   1    4   22     1    22    2.2289E+01  5.7510E-03   2.2283E+01  0.000E+00  0.000E+00  0.000E+00  1.37113E+02  3.563E+00  6.253E+00  1.415E-03  4.512E-03  1.239E-03
   1    4   23     1    23    2.2283E+01  5.7496E-03   2.2277E+01  0.000E+00  0.000E+00  0.000E+00  1.36813E+02  3.563E+00  6.251E+00  1.415E-03  4.509E-03  1.241E-03
   1    4   24     1    24    2.2277E+01  5.7481E-03   2.2272E+01  0.000E+00  0.000E+00  0.000E+00  1.36512E+02  3.563E+00  6.250E+00  1.415E-03  4.505E-03  1.243E-03
   1    4   25     1    25    2.2272E+01  5.7467E-03   2.2266E+01  0.000E+00  0.000E+00  0.000E+00  1.36212E+02  3.562E+00  6.249E+00  1.415E-03  4.502E-03  1.245E-03
   1    4   26     1    26    2.2266E+01  5.7453E-03   2.2260E+01  0.000E+00  0.000E+00  0.000E+00  1.35912E+02  3.562E+00  6.247E+00  1.414E-03  4.499E-03  1.247E-03
   1    4   27     1    27    2.2260E+01  5.7439E-03   2.2254E+01  0.000E+00  0.000E+00  0.000E+00  1.35611E+02  3.561E+00  6.246E+00  1.414E-03  4.495E-03  1.249E-03
   1    4   28     1    28    2.2254E+01  5.7425E-03   2.2249E+01  0.000E+00  0.000E+00  0.000E+00  1.35311E+02  3.561E+00  6.244E+00  1.414E-03  4.492E-03  1.250E-03
   1    4   29     1    29    2.2249E+01  5.7411E-03   2.2243E+01  0.000E+00  0.000E+00  0.000E+00  1.35011E+02  3.561E+00  6.243E+00  1.414E-03  4.489E-03  1.252E-03
   1    4   30     1    30    2.2243E+01  5.7397E-03   2.2237E+01  0.000E+00  0.000E+00  0.000E+00  1.34710E+02  3.560E+00  6.242E+00  1.414E-03  4.486E-03  1.253E-03
   1    4   31     1    31    2.2237E+01  5.7383E-03   2.2231E+01  0.000E+00  0.000E+00  0.000E+00  1.34410E+02  3.560E+00  6.240E+00  1.413E-03  4.484E-03  1.255E-03
   1    4   32     1    32    2.2231E+01  5.7369E-03   2.2226E+01  0.000E+00  0.000E+00  0.000E+00  1.34110E+02  3.560E+00  6.239E+00  1.413E-03  4.481E-03  1.255E-03
   1    4   33     1    33    2.2226E+01  5.7355E-03   2.2220E+01  0.000E+00  0.000E+00  0.000E+00  1.33809E+02  3.559E+00  6.237E+00  1.413E-03  4.480E-03  1.256E-03
   1    4   34     1    34    2.2220E+01  5.7341E-03   2.2214E+01  0.000E+00  0.000E+00  0.000E+00  1.33509E+02  3.559E+00  6.236E+00  1.413E-03  4.480E-03  1.255E-03
   1    4   35     1    35    2.2214E+01  5.7327E-03   2.2209E+01  0.000E+00  0.000E+00  0.000E+00  1.33209E+02  3.559E+00  6.234E+00  1.412E-03  4.480E-03  1.253E-03
   1    4   36     1    36    2.2209E+01  5.7313E-03   2.2203E+01  0.000E+00  0.000E+00  0.000E+00  1.32908E+02  3.558E+00  6.233E+00  1.412E-03  4.480E-03  1.251E-03
   1    4   37     1    37    2.2203E+01  5.7299E-03   2.2197E+01  0.000E+00  0.000E+00  0.000E+00  1.32608E+02  3.558E+00  6.232E+00  1.412E-03  4.189E-03  1.541E-03
   1    4   38     1    38    2.2197E+01  5.7285E-03   2.2191E+01  0.000E+00  0.000E+00  0.000E+00  1.32308E+02  3.558E+00  6.230E+00  1.412E-03  3.778E-03  1.950E-03
   1    4   39     1    39    2.2191E+01  5.7271E-03   2.2186E+01  0.000E+00  0.000E+00  0.000E+00  1.32007E+02  3.557E+00  6.229E+00  1.412E-03  3.363E-03  2.365E-03
   1    4   40     1    40    2.2186E+01  5.7257E-03   2.2180E+01  0.000E+00  0.000E+00  0.000E+00  1.31707E+02  3.557E+00  6.227E+00  1.411E-03  3.293E-03  2.432E-03
   1    4   41     1    41    2.2180E+01  5.7243E-03   2.2174E+01  0.000E+00  0.000E+00  0.000E+00  1.31406E+02  3.556E+00  6.226E+00  1.411E-03  3.294E-03  2.430E-03
   1    4   42     1    42    2.2174E+01  5.7229E-03   2.2168E+01  0.000E+00  0.000E+00  0.000E+00  1.31106E+02  3.556E+00  6.224E+00  1.411E-03  3.300E-03  2.423E-03
   1    4   43     1    43    2.2168E+01  5.7215E-03   2.2163E+01  0.000E+00  0.000E+00  0.000E+00  1.30806E+02  3.556E+00  6.223E+00  1.411E-03  3.338E-03  2.383E-03
   1    4   44     1    44    2.2163E+01  5.7201E-03   2.2157E+01  0.000E+00  0.000E+00  0.000E+00  1.30505E+02  3.555E+00  6.222E+00  1.410E-03  3.344E-03  2.376E-03
   1    4   45     1    45    2.2157E+01  5.7187E-03   2.2151E+01  0.000E+00  0.000E+00  0.000E+00  1.30205E+02  3.555E+00  6.220E+00  1.410E-03  3.351E-03  2.368E-03
   1    4   46     1    46    2.2151E+01  5.7173E-03   2.2146E+01  0.000E+00  0.000E+00  0.000E+00  1.29905E+02  3.555E+00  6.219E+00  1.410E-03  3.403E-03  2.314E-03
   1    4   47     1    47    2.2146E+01  5.7159E-03   2.2140E+01  0.000E+00  0.000E+00  0.000E+00  1.29604E+02  3.554E+00  6.217E+00  1.410E-03  3.415E-03  2.301E-03
   1    4   48     1    48    2.2140E+01  5.7145E-03   2.2134E+01  0.000E+00  0.000E+00  0.000E+00  1.29304E+02  3.554E+00  6.216E+00  1.410E-03  3.468E-03  2.246E-03
   1    4   49     1    49    2.2134E+01  5.7131E-03   2.2128E+01  0.000E+00  0.000E+00  0.000E+00  1.29004E+02  3.554E+00  6.215E+00  1.409E-03  3.488E-03  2.225E-03
   1    4   50     1    50    2.2128E+01  5.7117E-03   2.2123E+01  0.000E+00  0.000E+00  0.000E+00  1.28703E+02  3.553E+00  6.213E+00  1.409E-03  3.577E-03  2.135E-03
   1    4   51     1    51    2.2123E+01  5.7103E-03   2.2117E+01  0.000E+00  0.000E+00  0.000E+00  1.28403E+02  3.553E+00  6.212E+00  1.409E-03  3.564E-03  2.147E-03
   1    4   52     1    52    2.2117E+01  5.7090E-03   2.2111E+01  0.000E+00  0.000E+00  0.000E+00  1.28103E+02  3.553E+00  6.210E+00  1.409E-03  3.530E-03  2.179E-03
   1    4   53     1    53    2.2111E+01  5.7076E-03   2.2106E+01  0.000E+00  0.000E+00  0.000E+00  1.27802E+02  3.552E+00  6.209E+00  1.408E-03  3.527E-03  2.181E-03
   1    4   54     1    54    2.2106E+01  5.7062E-03   2.2100E+01  0.000E+00  0.000E+00  0.000E+00  1.27502E+02  3.552E+00  6.208E+00  1.408E-03  3.553E-03  2.153E-03
   1    4   55     1    55    2.2100E+01  5.7048E-03   2.2094E+01  0.000E+00  0.000E+00  0.000E+00  1.27202E+02  3.552E+00  6.206E+00  1.408E-03  3.566E-03  2.139E-03
   1    4   56     1    56    2.2094E+01  5.7034E-03   2.2088E+01  0.000E+00  0.000E+00  0.000E+00  1.26901E+02  3.551E+00  6.205E+00  1.408E-03  3.469E-03  2.235E-03
   1    4   57     1    57    2.2088E+01  5.7020E-03   2.2083E+01  0.000E+00  0.000E+00  0.000E+00  1.26601E+02  3.551E+00  6.203E+00  1.408E-03  3.442E-03  2.260E-03
   1    4   58     1    58    2.2083E+01  5.7006E-03   2.2077E+01  0.000E+00  0.000E+00  0.000E+00  1.26300E+02  3.550E+00  6.202E+00  1.407E-03  3.385E-03  2.315E-03
   1    4   59     1    59    2.2077E+01  5.6992E-03   2.2071E+01  0.000E+00  0.000E+00  0.000E+00  1.26000E+02  3.550E+00  6.200E+00  1.407E-03  3.369E-03  2.330E-03
   1    4   60     1    60    2.2071E+01  5.6978E-03   2.2066E+01  0.000E+00  0.000E+00  0.000E+00  1.25700E+02  3.550E+00  6.199E+00  1.407E-03  3.314E-03  2.384E-03
   1    4   61     1    61    2.2066E+01  5.6964E-03   2.2060E+01  0.000E+00  0.000E+00  0.000E+00  1.25399E+02  3.549E+00  6.198E+00  1.407E-03  3.303E-03  2.393E-03
   1    4   62     1    62    2.2060E+01  5.6950E-03   2.2054E+01  0.000E+00  0.000E+00  0.000E+00  1.25099E+02  3.549E+00  6.196E+00  1.407E-03  3.294E-03  2.401E-03
   1    4   63     1    63    2.2054E+01  5.6936E-03   2.2049E+01  0.000E+00  0.000E+00  0.000E+00  1.24799E+02  3.549E+00  6.195E+00  1.406E-03  3.268E-03  2.426E-03
   1    4   64     1    64    2.2049E+01  5.6922E-03   2.2043E+01  0.000E+00  0.000E+00  0.000E+00  1.24498E+02  3.548E+00  6.193E+00  1.406E-03  3.246E-03  2.446E-03
   1    4   65     1    65    2.2043E+01  5.6908E-03   2.2037E+01  0.000E+00  0.000E+00  0.000E+00  1.24198E+02  3.548E+00  6.192E+00  1.406E-03  3.243E-03  2.448E-03
   1    4   66     1    66    2.2037E+01  5.6894E-03   2.2031E+01  0.000E+00  0.000E+00  0.000E+00  1.23898E+02  3.548E+00  6.191E+00  1.406E-03  3.528E-03  2.161E-03
   1    4   67     1    67    2.2031E+01  5.6881E-03   2.2026E+01  0.000E+00  0.000E+00  0.000E+00  1.23597E+02  3.547E+00  6.189E+00  1.405E-03  3.992E-03  1.696E-03
   1    4   68     1    68    2.2026E+01  5.6867E-03   2.2020E+01  0.000E+00  0.000E+00  0.000E+00  1.23297E+02  3.547E+00  6.188E+00  1.405E-03  4.422E-03  1.265E-03
   1    4   69     1    69    2.2020E+01  5.6853E-03   2.2014E+01  0.000E+00  0.000E+00  0.000E+00  1.22997E+02  3.547E+00  6.186E+00  1.405E-03  4.414E-03  1.271E-03
   1    4   70     1    70    2.2014E+01  5.6839E-03   2.2009E+01  0.000E+00  0.000E+00  0.000E+00  1.22696E+02  3.546E+00  6.185E+00  1.405E-03  4.411E-03  1.272E-03
   1    4   71     1    71    2.2009E+01  5.6825E-03   2.2003E+01  0.000E+00  0.000E+00  0.000E+00  1.22396E+02  3.546E+00  6.184E+00  1.405E-03  4.410E-03  1.273E-03
   1    4   72     1    72    2.2003E+01  5.6811E-03   2.1997E+01  0.000E+00  0.000E+00  0.000E+00  1.22096E+02  3.546E+00  6.182E+00  1.404E-03  4.410E-03  1.271E-03
   1    4   73     1    73    2.1997E+01  5.6797E-03   2.1992E+01  0.000E+00  0.000E+00  0.000E+00  1.21795E+02  3.545E+00  6.181E+00  1.404E-03  4.411E-03  1.269E-03
   1    4   74     1    74    2.1992E+01  5.6783E-03   2.1986E+01  0.000E+00  0.000E+00  0.000E+00  1.21495E+02  3.545E+00  6.179E+00  1.404E-03  4.412E-03  1.266E-03
   1    4   75     1    75    2.1986E+01  5.6769E-03   2.1980E+01  0.000E+00  0.000E+00  0.000E+00  1.21194E+02  3.544E+00  6.178E+00  1.404E-03  4.414E-03  1.263E-03
   1    4   76     1    76    2.1980E+01  5.6756E-03   2.1975E+01  0.000E+00  0.000E+00  0.000E+00  1.20894E+02  3.544E+00  6.176E+00  1.403E-03  4.417E-03  1.259E-03
   1    4   77     1    77    2.1975E+01  5.6742E-03   2.1969E+01  0.000E+00  0.000E+00  0.000E+00  1.20594E+02  3.544E+00  6.175E+00  1.403E-03  4.420E-03  1.254E-03
   1    4   78     1    78    2.1969E+01  5.6728E-03   2.1963E+01  0.000E+00  0.000E+00  0.000E+00  1.20293E+02  3.543E+00  6.174E+00  1.403E-03  4.423E-03  1.249E-03
   1    4   79     1    79    2.1963E+01  5.6714E-03   2.1958E+01  0.000E+00  0.000E+00  0.000E+00  1.19993E+02  3.543E+00  6.172E+00  1.403E-03  4.427E-03  1.244E-03
   1    4   80     1    80    2.1958E+01  5.6700E-03   2.1952E+01  0.000E+00  0.000E+00  0.000E+00  1.19693E+02  3.543E+00  6.171E+00  1.403E-03  4.431E-03  1.239E-03
   1    4   81     1    81    2.1952E+01  5.6686E-03   2.1946E+01  0.000E+00  0.000E+00  0.000E+00  1.19392E+02  3.542E+00  6.169E+00  1.402E-03  4.436E-03  1.233E-03
   1    4   82     1    82    2.1946E+01  5.6672E-03   2.1941E+01  0.000E+00  0.000E+00  0.000E+00  1.19092E+02  3.542E+00  6.168E+00  1.402E-03  4.441E-03  1.226E-03
   1    4   83     1    83    2.1941E+01  5.6659E-03   2.1935E+01  0.000E+00  0.000E+00  0.000E+00  1.18792E+02  3.542E+00  6.167E+00  1.402E-03  4.446E-03  1.220E-03
   1    4   84     1    84    2.1935E+01  5.6645E-03   2.1929E+01  0.000E+00  0.000E+00  0.000E+00  1.18491E+02  3.541E+00  6.165E+00  1.402E-03  4.452E-03  1.213E-03
   1    4   85     1    85    2.1929E+01  5.6631E-03   2.1924E+01  0.000E+00  0.000E+00  0.000E+00  1.18191E+02  3.541E+00  6.164E+00  1.401E-03  4.464E-03  1.199E-03
   1    4   86     1    86    2.1924E+01  5.6617E-03   2.1918E+01  0.000E+00  0.000E+00  0.000E+00  1.17891E+02  3.541E+00  6.162E+00  1.401E-03  4.471E-03  1.190E-03
   1    4   87     1    87    2.1918E+01  5.6603E-03   2.1912E+01  0.000E+00  0.000E+00  0.000E+00  1.17590E+02  3.540E+00  6.161E+00  1.401E-03  4.479E-03  1.181E-03
   1    4   88     1    88    2.1912E+01  5.6589E-03   2.1907E+01  0.000E+00  0.000E+00  0.000E+00  1.17290E+02  3.540E+00  6.160E+00  1.401E-03  4.487E-03  1.172E-03
   1    4   89     1    89    2.1907E+01  5.6576E-03   2.1901E+01  0.000E+00  0.000E+00  0.000E+00  1.16990E+02  3.540E+00  6.158E+00  1.401E-03  4.494E-03  1.163E-03
   1    4   90     1    90    2.1901E+01  5.6562E-03   2.1895E+01  0.000E+00  0.000E+00  0.000E+00  1.16689E+02  3.539E+00  6.157E+00  1.400E-03  4.502E-03  1.154E-03
   1    4   91     1    91    2.1895E+01  5.6548E-03   2.1890E+01  0.000E+00  0.000E+00  0.000E+00  1.16389E+02  3.539E+00  6.155E+00  1.400E-03  4.511E-03  1.144E-03
   1    4   92     1    92    2.1890E+01  5.6534E-03   2.1884E+01  0.000E+00  0.000E+00  0.000E+00  1.16088E+02  3.538E+00  6.154E+00  1.400E-03  4.519E-03  1.135E-03
   1    4   93     1    93    2.1884E+01  5.6520E-03   2.1878E+01  0.000E+00  0.000E+00  0.000E+00  1.15788E+02  3.538E+00  6.153E+00  1.400E-03  4.527E-03  1.125E-03
   1    4   94     1    94    2.1878E+01  5.6506E-03   2.1873E+01  0.000E+00  0.000E+00  0.000E+00  1.15488E+02  3.538E+00  6.151E+00  1.399E-03  4.534E-03  1.116E-03
   1    4   95     1    95    2.1873E+01  5.6493E-03   2.1867E+01  0.000E+00  0.000E+00  0.000E+00  1.15187E+02  3.537E+00  6.150E+00  1.399E-03  4.542E-03  1.107E-03
   1    4   96     1    96    2.1867E+01  5.6479E-03   2.1861E+01  0.000E+00  0.000E+00  0.000E+00  1.14887E+02  3.537E+00  6.148E+00  1.399E-03  4.549E-03  1.099E-03
   1    4   97     1    97    2.1861E+01  5.6465E-03   2.1856E+01  0.000E+00  0.000E+00  0.000E+00  1.14587E+02  3.537E+00  6.147E+00  1.399E-03  4.555E-03  1.092E-03
   1    4   98     1    98    2.1856E+01  5.6451E-03   2.1850E+01  0.000E+00  0.000E+00  0.000E+00  1.14286E+02  3.536E+00  6.145E+00  1.399E-03  4.560E-03  1.085E-03
   1    4   99     1    99    2.1850E+01  5.6437E-03   2.1845E+01  0.000E+00  0.000E+00  0.000E+00  1.13986E+02  3.536E+00  6.144E+00  1.398E-03  4.565E-03  1.079E-03
   1    4  100     1   100    2.1845E+01  5.6424E-03   2.1839E+01  0.000E+00  0.000E+00  0.000E+00  1.13686E+02  3.536E+00  6.143E+00  1.398E-03  4.570E-03  1.073E-03



1
  VOLUMETRIC BUDGET FOR UNSATURATED ZONE BENEATH STREAMS AT END OF TIME STEP    30 STRESS PERIOD  16
  ------------------------------------------------------------------------------------------------

    CUMULATIVE VOLUMES             L**3    RATES FOR THIS TIME STEP         L**3/T
    ------------------                     ------------------------


          STREAM LOSS =     15529661.0000            STREAM LOSS =            0.5711
    CHANGE IN STORAGE =      1932150.2500      CHANGE IN STORAGE =            0.1539
       RECHARGE TO GW =     13602304.0000         RECHARGE TO GW =            0.4172

             TOTAL IN =     15529661.0000               TOTAL IN =            0.5711

            TOTAL OUT =     15534454.0000              TOTAL OUT =            0.5711

             IN - OUT =        -4793.0000               IN - OUT =        1.1921E-07

  PERCENT DISCREPANCY =           -0.01      PERCENT DISCREPANCY =             0.00



1
  VOLUMETRIC BUDGET FOR ENTIRE MODEL AT END OF TIME STEP   30, STRESS PERIOD  16
  ------------------------------------------------------------------------------

     CUMULATIVE VOLUMES      L**3       RATES FOR THIS TIME STEP      L**3/T
     ------------------                 ------------------------

           IN:                                      IN:
           ---                                      ---
             STORAGE     =    78943608.0000               STORAGE     =           0.7455
       CONSTANT HEAD     =           0.0000         CONSTANT HEAD     =           0.0000
               WELLS     =           0.0000                 WELLS     =           0.0000
     HEAD DEP BOUNDS     =           0.0000       HEAD DEP BOUNDS     =           0.0000
      STREAM LEAKAGE     =    13602319.0000        STREAM LEAKAGE     =           0.4172

                TOTAL IN =    92545928.0000                  TOTAL IN =           1.1627

          OUT:                                     OUT:
          ----                                     ----
             STORAGE     =     2373705.2500               STORAGE     =           0.0000
       CONSTANT HEAD     =           0.0000         CONSTANT HEAD     =           0.0000
               WELLS     =    75668272.0000                 WELLS     =           1.0587
     HEAD DEP BOUNDS     =    14503972.0000       HEAD DEP BOUNDS     =           0.1040
      STREAM LEAKAGE     =           0.0000        STREAM LEAKAGE     =           0.0000

               TOTAL OUT =    92545952.0000                 TOTAL OUT =           1.1627

                IN - OUT =         -24.0000                  IN - OUT =      -1.1921E-07

     PERCENT DISCREPANCY =          -0.00         PERCENT DISCREPANCY =          -0.00






         TIME SUMMARY AT END OF TIME STEP   30 IN STRESS PERIOD   16
                    SECONDS     MINUTES      HOURS       DAYS        YEARS
                    -----------------------------------------------------------
   TIME STEP LENGTH 2.49961E+05  4166.0      69.434      2.8931     7.92080E-03
 STRESS PERIOD TIME 2.59200E+06  43200.      720.00      30.000     8.21355E-02
         TOTAL TIME 4.14720E+07 6.91200E+05  11520.      480.00      1.3142    
1
1
                            STRESS PERIOD NO.   17, LENGTH =   2592000.    
                            -----------------------------------------------

                              NUMBER OF TIME STEPS =    30

                               MULTIPLIER FOR DELT =     1.100

                            INITIAL TIME STEP SIZE =   15757.40    

 REUSING NON-PARAMETER WELLS FROM LAST STRESS PERIOD

      1 WELL 

 REUSING NON-PARAMETER GHB CELLS FROM LAST STRESS PERIOD

      7 GHB CELLS



 CLASSIFICATION & COUNT OF STREAM SEGMENTS BASED ON SOURCE OF INFLOW:

                HEADWATER     DIVERSION     RECEIVES TRIBUTARY FLOW
                ---------     ---------     -----------------------
                     1              0               0



                    INPUT DATA FOR EACH STREAM SEGMENT
 ---------------------------------------------------------------------------------------------

 SEGMENT    SEG.     INFLOW   OVERLAND   STREAM    STREAM   ICALC  OUTFLOW  DIVERSION PRIORITY
    NO.    LENGTH     RATE     RUNOFF      ET       PPT.    METH.  TO SEG.  FROM SEG.    NO.

      1  2.000E+04 1.747E+01 0.000E+00 0.000E+00 0.000E+00    2        0        0        0


         STREAMBED PROPERTIES AND STREAM DIMENSIONS

 SEGMENT     BED HYD. COND.      BED THICKNESS     ELEV.-TOP OF BED     WIDTH OF STREAM     DEPTH OF STREAM    STREAM ROUGHNESS
    No.     UPPER     LOWER     UPPER     LOWER     UPPER     LOWER     UPPER     LOWER     UPPER     LOWER   CHANNEL      BANK

     1  3.500E-07 3.500E-07                                                                                 3.000E-02 4.000E-02

  EIGHT POINT CROSS-SECTION DATA FOR SEGMENTS WITH ICALC = 2
    X VALUES X VALUES START FROM LEFT SIDE LOOKING DOWNSTREAM

     SEGMENT NO.        X1        X2        X3        X4        X5        X6        X7        X8
            1      0.000E+00 2.000E+00 4.000E+00 6.000E+00 8.000E+00 1.000E+01 1.200E+01 1.400E+01

    Z VALUES ARE RELATIVE TO STREAMBED ELEVATION

     SEGMENT NO.          Z1        Z2        Z3        Z4        Z5        Z6        Z7        Z8
            1      6.000E+00 4.500E+00 3.500E+00 0.000E+00 3.000E-01 3.500E+00 4.500E+00 6.000E+00



 
 SOLVING FOR HEAD 
                                                   Max.-Head-Change                         Max.-Flux-Residual
  Residual-Control   Outer-Iter.   Inner-Iter.     Column Row Layer    Maximum-Head-Change  Column Row Layer    Maximum-Flux-Residual          L2-NORM 
          0                 1           2            66    1     1      -0.9372565289E-02      50    3    1         0.2234672782E+00      0.2980073800E+00
          0                 2           2            66    1     1       0.9175871152E-03      50    3    1         0.5123576131E-01      0.5328449163E-01
          0                 3           2            50    3     1       0.1829194939E+00      50    3    1         0.4514867438E-01      0.4514976220E-01
          0                 4           2            50    3     1      -0.1789277437E-01      50    3    1        -0.4534880011E-02      0.4552087978E-02
          0                 5           2            50    3     1       0.1599139234E-02      50    3    1         0.4084598903E-03      0.4096528001E-03
          0                 6           2            50    3     1      -0.1268861660E-03      50    3    1        -0.3274424117E-04      0.3284738354E-04
          0                 7           1            50    3     1       0.8839663822E-05      50    3    1         0.2303820138E-05      0.2311372635E-05
          0                 8           1            50    3     1      -0.5307898424E-06      50    3    1        -0.1397162435E-06      0.1402013768E-06

    ------------------------------------------------
       NWT REQUIRED            8 OUTER ITERATIONS 
       AND A TOTAL OF         14 INNER ITERATIONS.
    ------------------------------------------------

 NO OUTPUT CONTROL FOR STRESS PERIOD   17   TIME STEP    1
 
 WELLS WITH REDUCED PUMPING FOR STRESS PERIOD    17 TIME STEP     1
   LAY   ROW   COL         APPL.Q          ACT.Q        GW-HEAD       CELL-BOT
     1     5    55  -0.520299E+00  -0.492750E+00   0.955161E-03   0.000000E+00
 
 
 SOLVING FOR HEAD 
                                                   Max.-Head-Change                         Max.-Flux-Residual
  Residual-Control   Outer-Iter.   Inner-Iter.     Column Row Layer    Maximum-Head-Change  Column Row Layer    Maximum-Flux-Residual          L2-NORM 
          0                 1           2            50    3     1       0.1721053349E+00      50    3    1         0.3851683049E-01      0.4939918094E-01
          0                 2           2            50    3     1      -0.1664843610E-01      50    3    1        -0.3865749961E-02      0.4927619016E-02
          0                 3           2            50    3     1       0.1485155964E-02      50    3    1         0.3478777862E-03      0.4489617268E-03
          0                 4           2            50    3     1      -0.1178793030E-03      50    3    1        -0.2786525511E-04      0.3623334953E-04
          0                 5           1            50    3     1       0.8211663885E-05      50    3    1         0.1958897478E-05      0.2554542755E-05
          0                 6           1            50    3     1      -0.4930851407E-06      50    3    1        -0.1187009118E-06      0.1549151519E-06

    ------------------------------------------------
       NWT REQUIRED            6 OUTER ITERATIONS 
       AND A TOTAL OF         10 INNER ITERATIONS.
    ------------------------------------------------

 NO OUTPUT CONTROL FOR STRESS PERIOD   17   TIME STEP    2
 
 WELLS WITH REDUCED PUMPING FOR STRESS PERIOD    17 TIME STEP     2
   LAY   ROW   COL         APPL.Q          ACT.Q        GW-HEAD       CELL-BOT
     1     5    55  -0.519966E+00  -0.492646E+00   0.955787E-03   0.000000E+00
 
 
 SOLVING FOR HEAD 
                                                   Max.-Head-Change                         Max.-Flux-Residual
  Residual-Control   Outer-Iter.   Inner-Iter.     Column Row Layer    Maximum-Head-Change  Column Row Layer    Maximum-Flux-Residual          L2-NORM 
          0                 1           2            50    3     1       0.1604774571E+00      50    3    1         0.3249711104E-01      0.4492087317E-01
          0                 2           2            50    3     1      -0.1535376960E-01      50    3    1        -0.3266090434E-02      0.4470670039E-02
          0                 3           2            50    3     1       0.1368125208E-02      50    3    1         0.2938822109E-03      0.4090343782E-03
          0                 4           2            50    3     1      -0.1085970964E-03      50    3    1        -0.2354052504E-04      0.3310968608E-04
          0                 5           1            50    3     1       0.7564998309E-05      50    3    1         0.1654870655E-05      0.2337705469E-05
          0                 6           1            50    3     1      -0.4542538767E-06      50    3    1        -0.1002778606E-06      0.1418390038E-06

    ------------------------------------------------
       NWT REQUIRED            6 OUTER ITERATIONS 
       AND A TOTAL OF         10 INNER ITERATIONS.
    ------------------------------------------------

 NO OUTPUT CONTROL FOR STRESS PERIOD   17   TIME STEP    3
 
 WELLS WITH REDUCED PUMPING FOR STRESS PERIOD    17 TIME STEP     3
   LAY   ROW   COL         APPL.Q          ACT.Q        GW-HEAD       CELL-BOT
     1     5    55  -0.520042E+00  -0.492467E+00   0.955042E-03   0.000000E+00
 
 
 SOLVING FOR HEAD 
                                                   Max.-Head-Change                         Max.-Flux-Residual
  Residual-Control   Outer-Iter.   Inner-Iter.     Column Row Layer    Maximum-Head-Change  Column Row Layer    Maximum-Flux-Residual          L2-NORM 
          0                 1           2            50    3     1       0.1510583905E+00      50    3    1         0.2771015355E-01      0.4163908586E-01
          0                 2           2            50    3     1      -0.1431138568E-01      50    3    1        -0.2788226480E-02      0.4135310385E-02
          0                 3           2            50    3     1       0.1272861591E-02      50    3    1         0.2508649700E-03      0.3800439522E-03
          0                 4           1            50    3     1      -0.1010406540E-03      50    3    1        -0.2009498037E-04      0.3086799972E-04
          0                 5           1            50    3     1       0.7038493710E-05      50    3    1         0.1412633621E-05      0.2183506632E-05
          0                 6           1            50    3     1      -0.4226370461E-06      50    3    1        -0.8559892939E-07      0.1325850967E-06

    ------------------------------------------------
       NWT REQUIRED            6 OUTER ITERATIONS 
       AND A TOTAL OF          9 INNER ITERATIONS.
    ------------------------------------------------

 NO OUTPUT CONTROL FOR STRESS PERIOD   17   TIME STEP    4
 
 WELLS WITH REDUCED PUMPING FOR STRESS PERIOD    17 TIME STEP     4
   LAY   ROW   COL         APPL.Q          ACT.Q        GW-HEAD       CELL-BOT
     1     5    55  -0.519973E+00  -0.492268E+00   0.954647E-03   0.000000E+00
 
 
 SOLVING FOR HEAD 
                                                   Max.-Head-Change                         Max.-Flux-Residual
  Residual-Control   Outer-Iter.   Inner-Iter.     Column Row Layer    Maximum-Head-Change  Column Row Layer    Maximum-Flux-Residual          L2-NORM 
          0                 1           2            50    3     1       0.1420237560E+00      50    3    1         0.2361180119E-01      0.3901997185E-01
          0                 2           2            50    3     1      -0.1333407183E-01      50    3    1        -0.2378205081E-02      0.3867371687E-02
          0                 3           2            50    3     1       0.1182929022E-02      50    3    1         0.2139586157E-03      0.3571327599E-03
          0                 4           1            50    3     1      -0.9389488791E-04      50    3    1        -0.1713864832E-04      0.2912189066E-04
          0                 5           1            50    3     1       0.6540685703E-05      50    3    1         0.1204802108E-05      0.2064737670E-05
          0                 6           1            50    3     1      -0.3927428792E-06      50    3    1        -0.7300470245E-07      0.1255025043E-06

    ------------------------------------------------
       NWT REQUIRED            6 OUTER ITERATIONS 
       AND A TOTAL OF          9 INNER ITERATIONS.
    ------------------------------------------------

 NO OUTPUT CONTROL FOR STRESS PERIOD   17   TIME STEP    5
 
 WELLS WITH REDUCED PUMPING FOR STRESS PERIOD    17 TIME STEP     5
   LAY   ROW   COL         APPL.Q          ACT.Q        GW-HEAD       CELL-BOT
     1     5    55  -0.520036E+00  -0.492047E+00   0.953821E-03   0.000000E+00
 
 
 SOLVING FOR HEAD 
                                                   Max.-Head-Change                         Max.-Flux-Residual
  Residual-Control   Outer-Iter.   Inner-Iter.     Column Row Layer    Maximum-Head-Change  Column Row Layer    Maximum-Flux-Residual          L2-NORM 
          0                 1           2            50    3     1       0.1346715461E+00      50    3    1         0.2031798065E-01      0.3700572723E-01
          0                 2           2            50    3     1      -0.1254319107E-01      50    3    1        -0.2048289785E-02      0.3661806377E-02
          0                 3           2            50    3     1       0.1109329338E-02      50    3    1         0.1842643836E-03      0.3398748719E-03
          0                 4           1            50    3     1      -0.8802939672E-04      50    3    1        -0.1476012996E-04      0.2784280519E-04
          0                 5           1            50    3     1       0.6132164036E-05      50    3    1         0.1037587463E-05      0.1979747934E-05
          0                 6           1            50    3     1      -0.3682072439E-06      50    3    1        -0.6287155252E-07      0.1205076843E-06

    ------------------------------------------------
       NWT REQUIRED            6 OUTER ITERATIONS 
       AND A TOTAL OF          9 INNER ITERATIONS.
    ------------------------------------------------

 NO OUTPUT CONTROL FOR STRESS PERIOD   17   TIME STEP    6
 
 WELLS WITH REDUCED PUMPING FOR STRESS PERIOD    17 TIME STEP     6
   LAY   ROW   COL         APPL.Q          ACT.Q        GW-HEAD       CELL-BOT
     1     5    55  -0.519970E+00  -0.491804E+00   0.953287E-03   0.000000E+00
 
 
 SOLVING FOR HEAD 
                                                   Max.-Head-Change                         Max.-Flux-Residual
  Residual-Control   Outer-Iter.   Inner-Iter.     Column Row Layer    Maximum-Head-Change  Column Row Layer    Maximum-Flux-Residual          L2-NORM 
          0                 1           2            50    3     1       0.1272915962E+00      50    3    1         0.1742607732E-01      0.3538440703E-01
          0                 2           2            50    3     1      -0.1176554931E-01      50    3    1        -0.1758170844E-02      0.3496086846E-02
          0                 3           2            50    3     1       0.1036758800E-02      50    3    1         0.1581547279E-03      0.3261893448E-03
          0                 4           1            50    3     1      -0.8222706933E-04      50    3    1        -0.1266871927E-04      0.2685938877E-04
          0                 5           1            50    3     1       0.5727963300E-05      50    3    1         0.8905532889E-06      0.1916293238E-05
          0                 6           1            50    3     1      -0.3439307768E-06      50    3    1        -0.5396114505E-07      0.1168506789E-06

    ------------------------------------------------
       NWT REQUIRED            6 OUTER ITERATIONS 
       AND A TOTAL OF          9 INNER ITERATIONS.
    ------------------------------------------------

 NO OUTPUT CONTROL FOR STRESS PERIOD   17   TIME STEP    7
 
 WELLS WITH REDUCED PUMPING FOR STRESS PERIOD    17 TIME STEP     7
   LAY   ROW   COL         APPL.Q          ACT.Q        GW-HEAD       CELL-BOT
     1     5    55  -0.520015E+00  -0.491535E+00   0.952376E-03   0.000000E+00
 
 
 SOLVING FOR HEAD 
                                                   Max.-Head-Change                         Max.-Flux-Residual
  Residual-Control   Outer-Iter.   Inner-Iter.     Column Row Layer    Maximum-Head-Change  Column Row Layer    Maximum-Flux-Residual          L2-NORM 
          0                 1           2            50    3     1       0.1207911704E+00      50    3    1         0.1501561794E-01      0.3410301546E-01
          0                 2           2            50    3     1      -0.1108714507E-01      50    3    1        -0.1516131602E-02      0.3372202317E-02
          0                 3           2            50    3     1       0.9729758530E-03      50    3    1         0.1363734712E-03      0.3162632294E-03
          0                 4           1            50    3     1      -0.7710311828E-04      50    3    1        -0.1092400884E-04      0.2617468740E-04
          0                 5           1            50    3     1       0.5370763116E-05      50    3    1         0.7678845581E-06      0.1874021151E-05
          0                 6           1            50    3     1      -0.3224756099E-06      50    3    1        -0.4652702607E-07      0.1145021524E-06

    ------------------------------------------------
       NWT REQUIRED            6 OUTER ITERATIONS 
       AND A TOTAL OF          9 INNER ITERATIONS.
    ------------------------------------------------

 NO OUTPUT CONTROL FOR STRESS PERIOD   17   TIME STEP    8
 
 WELLS WITH REDUCED PUMPING FOR STRESS PERIOD    17 TIME STEP     8
   LAY   ROW   COL         APPL.Q          ACT.Q        GW-HEAD       CELL-BOT
     1     5    55  -0.520022E+00  -0.491238E+00   0.951493E-03   0.000000E+00
 
 
 SOLVING FOR HEAD 
                                                   Max.-Head-Change                         Max.-Flux-Residual
  Residual-Control   Outer-Iter.   Inner-Iter.     Column Row Layer    Maximum-Head-Change  Column Row Layer    Maximum-Flux-Residual          L2-NORM 
          0                 1           2            50    3     1       0.1151662423E+00      50    3    1         0.1301034616E-01      0.3306401810E-01
          0                 2           2            50    3     1      -0.1050405333E-01      50    3    1        -0.1314653391E-02      0.3270723956E-02
          0                 3           2            50    3     1       0.9176761103E-03      50    3    1         0.1182432088E-03      0.3083074263E-03
          0                 4           1            50    3     1      -0.7263373231E-04      50    3    1        -0.9471743257E-05      0.2565434929E-04
          0                 5           1            50    3     1       0.5058721444E-05      50    3    1         0.6657710853E-06      0.1843934695E-05
          0                 6           1            50    3     1      -0.3037320114E-06      50    3    1        -0.4033831219E-07      0.1129245699E-06

    ------------------------------------------------
       NWT REQUIRED            6 OUTER ITERATIONS 
       AND A TOTAL OF          9 INNER ITERATIONS.
    ------------------------------------------------

 NO OUTPUT CONTROL FOR STRESS PERIOD   17   TIME STEP    9
 
 WELLS WITH REDUCED PUMPING FOR STRESS PERIOD    17 TIME STEP     9
   LAY   ROW   COL         APPL.Q          ACT.Q        GW-HEAD       CELL-BOT
     1     5    55  -0.519978E+00  -0.490911E+00   0.950664E-03   0.000000E+00
 
 
 SOLVING FOR HEAD 
                                                   Max.-Head-Change                         Max.-Flux-Residual
  Residual-Control   Outer-Iter.   Inner-Iter.     Column Row Layer    Maximum-Head-Change  Column Row Layer    Maximum-Flux-Residual          L2-NORM 
          0                 1           2            50    3     1       0.1093315628E+00      50    3    1         0.1121203983E-01      0.3218445513E-01
          0                 2           2            50    3     1      -0.9908491515E-02      50    3    1        -0.1133753440E-02      0.3182704780E-02
          0                 3           2            50    3     1       0.8613467104E-03      50    3    1         0.1019662800E-03      0.3015330620E-03
          0                 4           1            50    3     1      -0.6806504779E-04      50    3    1        -0.8167924485E-05      0.2523609789E-04
          0                 5           1            50    3     1       0.4739167471E-05      50    3    1         0.5740906923E-06      0.1821745010E-05
          0                 6           1            50    3     1      -0.2845346673E-06      50    3    1        -0.3478159455E-07      0.1118654812E-06

    ------------------------------------------------
       NWT REQUIRED            6 OUTER ITERATIONS 
       AND A TOTAL OF          9 INNER ITERATIONS.
    ------------------------------------------------

 NO OUTPUT CONTROL FOR STRESS PERIOD   17   TIME STEP   10
 
 WELLS WITH REDUCED PUMPING FOR STRESS PERIOD    17 TIME STEP    10
   LAY   ROW   COL         APPL.Q          ACT.Q        GW-HEAD       CELL-BOT
     1     5    55  -0.520012E+00  -0.490552E+00   0.949535E-03   0.000000E+00
 
 
 SOLVING FOR HEAD 
                                                   Max.-Head-Change                         Max.-Flux-Residual
  Residual-Control   Outer-Iter.   Inner-Iter.     Column Row Layer    Maximum-Head-Change  Column Row Layer    Maximum-Flux-Residual          L2-NORM 
          0                 1           2            50    3     1       0.1041718256E+00      50    3    1         0.9705530178E-02      0.3147003049E-01
          0                 2           2            50    3     1      -0.9413480113E-02      50    3    1        -0.9821264036E-03      0.3113546269E-02
          0                 3           2            50    3     1       0.8129642853E-03      50    3    1         0.8832228063E-04      0.2964779621E-03
          0                 4           1            50    3     1      -0.6404258268E-04      50    3    1        -0.7075014027E-05      0.2495813055E-04
          0                 5           1            50    3     1       0.4455411922E-05      50    3    1         0.4972313944E-06      0.1809726860E-05
          0                 6           1            50    3     1      -0.2674688602E-06      50    3    1        -0.3012245131E-07      0.1114466580E-06

    ------------------------------------------------
       NWT REQUIRED            6 OUTER ITERATIONS 
       AND A TOTAL OF          9 INNER ITERATIONS.
    ------------------------------------------------

 NO OUTPUT CONTROL FOR STRESS PERIOD   17   TIME STEP   11
 
 WELLS WITH REDUCED PUMPING FOR STRESS PERIOD    17 TIME STEP    11
   LAY   ROW   COL         APPL.Q          ACT.Q        GW-HEAD       CELL-BOT
     1     5    55  -0.520017E+00  -0.490156E+00   0.948387E-03   0.000000E+00
 
 
 SOLVING FOR HEAD 
                                                   Max.-Head-Change                         Max.-Flux-Residual
  Residual-Control   Outer-Iter.   Inner-Iter.     Column Row Layer    Maximum-Head-Change  Column Row Layer    Maximum-Flux-Residual          L2-NORM 
          0                 1           2            50    3     1       0.9963374188E-01      50    3    1         0.8450012252E-02      0.3086070125E-01
          0                 2           2            50    3     1      -0.8964543534E-02      50    3    1        -0.8556988210E-03      0.3059004248E-02
          0                 3           2            50    3     1       0.7703203306E-03      50    3    1         0.7694784064E-04      0.2926450418E-03
          0                 4           1            50    3     1      -0.6053220577E-04      50    3    1        -0.6163892215E-05      0.2477206048E-04
          0                 5           1            50    3     1       0.4207613492E-05      50    3    1         0.4331443454E-06      0.1804317102E-05
          0                 6           1            50    3     1      -0.2525459564E-06      50    3    1        -0.2623697498E-07      0.1114541133E-06

    ------------------------------------------------
       NWT REQUIRED            6 OUTER ITERATIONS 
       AND A TOTAL OF          9 INNER ITERATIONS.
    ------------------------------------------------

 NO OUTPUT CONTROL FOR STRESS PERIOD   17   TIME STEP   12
 
 WELLS WITH REDUCED PUMPING FOR STRESS PERIOD    17 TIME STEP    12
   LAY   ROW   COL         APPL.Q          ACT.Q        GW-HEAD       CELL-BOT
     1     5    55  -0.519980E+00  -0.489711E+00   0.947217E-03   0.000000E+00
 
 
 SOLVING FOR HEAD 
                                                   Max.-Head-Change                         Max.-Flux-Residual
  Residual-Control   Outer-Iter.   Inner-Iter.     Column Row Layer    Maximum-Head-Change  Column Row Layer    Maximum-Flux-Residual          L2-NORM 
          0                 1           2            50    3     1       0.9509420137E-01      50    3    1         0.7313412287E-02      0.3030063911E-01
          0                 2           2            50    3     1      -0.8506544388E-02      50    3    1        -0.7411821252E-03      0.3001960350E-02
          0                 3           2            50    3     1       0.7266225828E-03      50    3    1         0.6664561099E-04      0.2885390362E-03
          0                 4           1            50    3     1      -0.5691873085E-04      50    3    1        -0.5338653281E-05      0.2457510525E-04
          0                 5           1            50    3     1       0.3951565612E-05      50    3    1         0.3750881519E-06      0.1799094339E-05
          0                 6           1            50    3     1      -0.2371013455E-06      50    3    1        -0.2271674621E-07      0.1115250527E-06

    ------------------------------------------------
       NWT REQUIRED            6 OUTER ITERATIONS 
       AND A TOTAL OF          9 INNER ITERATIONS.
    ------------------------------------------------

 NO OUTPUT CONTROL FOR STRESS PERIOD   17   TIME STEP   13
 
 WELLS WITH REDUCED PUMPING FOR STRESS PERIOD    17 TIME STEP    13
   LAY   ROW   COL         APPL.Q          ACT.Q        GW-HEAD       CELL-BOT
     1     5    55  -0.519984E+00  -0.489220E+00   0.945816E-03   0.000000E+00
 
 
 SOLVING FOR HEAD 
                                                   Max.-Head-Change                         Max.-Flux-Residual
  Residual-Control   Outer-Iter.   Inner-Iter.     Column Row Layer    Maximum-Head-Change  Column Row Layer    Maximum-Flux-Residual          L2-NORM 
          0                 1           2            50    3     1       0.9070850682E-01      50    3    1         0.6325529962E-02      0.2981798993E-01
          0                 2           2            50    3     1      -0.8071266908E-02      50    3    1        -0.6415687995E-03      0.2958815151E-02
          0                 3           2            50    3     1       0.6852535366E-03      50    3    1         0.5768474541E-04      0.2858888356E-03
          0                 4           1            50    3     1      -0.5348466704E-04      50    3    1        -0.4620859153E-05      0.2449249498E-04
          0                 5           1            50    3     1       0.3707056247E-05      50    3    1         0.3245782564E-06      0.1801402924E-05
          0                 6           1            50    3     1      -0.2223176141E-06      50    3    1        -0.1965354357E-07      0.1120315021E-06

    ------------------------------------------------
       NWT REQUIRED            6 OUTER ITERATIONS 
       AND A TOTAL OF          9 INNER ITERATIONS.
    ------------------------------------------------

 NO OUTPUT CONTROL FOR STRESS PERIOD   17   TIME STEP   14
 
 WELLS WITH REDUCED PUMPING FOR STRESS PERIOD    17 TIME STEP    14
   LAY   ROW   COL         APPL.Q          ACT.Q        GW-HEAD       CELL-BOT
     1     5    55  -0.520011E+00  -0.488691E+00   0.944256E-03   0.000000E+00
 
 
 SOLVING FOR HEAD 
                                                   Max.-Head-Change                         Max.-Flux-Residual
  Residual-Control   Outer-Iter.   Inner-Iter.     Column Row Layer    Maximum-Head-Change  Column Row Layer    Maximum-Flux-Residual          L2-NORM 
          0                 1           2            50    3     1       0.8697562728E-01      50    3    1         0.5510852562E-02      0.2938276333E-01
          0                 2           2            50    3     1      -0.7704274214E-02      50    3    1        -0.5594123817E-03      0.2920083030E-02
          0                 3           2            50    3     1       0.6501636716E-03      50    3    1         0.5029430642E-04      0.2833913597E-03
          0                 4           1            50    3     1      -0.5054314867E-04      50    3    1        -0.4028861906E-05      0.2441637033E-04
          0                 5           1            50    3     1       0.3495791005E-05      50    3    1         0.2829001608E-06      0.1804572786E-05
          0                 6           1            50    3     1      -0.2094889795E-06      50    3    1        -0.1712503295E-07      0.1126371577E-06

    ------------------------------------------------
       NWT REQUIRED            6 OUTER ITERATIONS 
       AND A TOTAL OF          9 INNER ITERATIONS.
    ------------------------------------------------

 NO OUTPUT CONTROL FOR STRESS PERIOD   17   TIME STEP   15
 
 WELLS WITH REDUCED PUMPING FOR STRESS PERIOD    17 TIME STEP    15
   LAY   ROW   COL         APPL.Q          ACT.Q        GW-HEAD       CELL-BOT
     1     5    55  -0.520011E+00  -0.488114E+00   0.942648E-03   0.000000E+00
 
 
 SOLVING FOR HEAD 
                                                   Max.-Head-Change                         Max.-Flux-Residual
  Residual-Control   Outer-Iter.   Inner-Iter.     Column Row Layer    Maximum-Head-Change  Column Row Layer    Maximum-Flux-Residual          L2-NORM 
          0                 1           2            50    3     1       0.8344826482E-01      50    3    1         0.4805420207E-02      0.2896683262E-01
          0                 2           2            50    3     1      -0.7360576837E-02      50    3    1        -0.4882335670E-03      0.2876415435E-02
          0                 3           2            50    3     1       0.6173589138E-03      50    3    1         0.4389165690E-04      0.2805038981E-03
          0                 4           1            50    3     1      -0.4777949196E-04      50    3    1        -0.3515988787E-05      0.2432136034E-04
          0                 5           1            50    3     1       0.3295840622E-05      50    3    1         0.2467724472E-06      0.1807027825E-05
          0                 6           1            50    3     1      -0.1972949459E-06      50    3    1        -0.1493249113E-07      0.1132283971E-06

    ------------------------------------------------
       NWT REQUIRED            6 OUTER ITERATIONS 
       AND A TOTAL OF          9 INNER ITERATIONS.
    ------------------------------------------------

 NO OUTPUT CONTROL FOR STRESS PERIOD   17   TIME STEP   16
 
 WELLS WITH REDUCED PUMPING FOR STRESS PERIOD    17 TIME STEP    16
   LAY   ROW   COL         APPL.Q          ACT.Q        GW-HEAD       CELL-BOT
     1     5    55  -0.520011E+00  -0.487485E+00   0.940906E-03   0.000000E+00
 
 
 SOLVING FOR HEAD 
                                                   Max.-Head-Change                         Max.-Flux-Residual
  Residual-Control   Outer-Iter.   Inner-Iter.     Column Row Layer    Maximum-Head-Change  Column Row Layer    Maximum-Flux-Residual          L2-NORM 
          0                 1           2            50    3     1       0.8029224796E-01      50    3    1         0.4210131137E-02      0.2883299251E-01
          0                 2           2            50    3     1      -0.7055902581E-02      50    3    1        -0.4281524671E-03      0.2841205859E-02
          0                 3           2            50    3     1       0.5882242766E-03      50    3    1         0.3848735288E-04      0.2777295571E-03
          0                 4           1            50    3     1      -0.4530496605E-04      50    3    1        -0.3083086641E-05      0.2423749326E-04
          0                 5           1            50    3     1       0.3114747850E-05      50    3    1         0.2162403898E-06      0.1811626460E-05
          0                 6           1            50    3     1      -0.1861757920E-06      50    3    1        -0.1307808101E-07      0.1140451188E-06

    ------------------------------------------------
       NWT REQUIRED            6 OUTER ITERATIONS 
       AND A TOTAL OF          9 INNER ITERATIONS.
    ------------------------------------------------

 NO OUTPUT CONTROL FOR STRESS PERIOD   17   TIME STEP   17
 
 WELLS WITH REDUCED PUMPING FOR STRESS PERIOD    17 TIME STEP    17
   LAY   ROW   COL         APPL.Q          ACT.Q        GW-HEAD       CELL-BOT
     1     5    55  -0.519994E+00  -0.486798E+00   0.939066E-03   0.000000E+00
 
 
 SOLVING FOR HEAD 
                                                   Max.-Head-Change                         Max.-Flux-Residual
  Residual-Control   Outer-Iter.   Inner-Iter.     Column Row Layer    Maximum-Head-Change  Column Row Layer    Maximum-Flux-Residual          L2-NORM 
          0                 1           2            50    3     1       0.7696452729E-01      50    3    1         0.3671140782E-02      0.2862308429E-01
          0                 2           2            50    3     1      -0.6738324374E-02      50    3    1        -0.3736867096E-03      0.2822860742E-02
          0                 3           2            50    3     1       0.5582618517E-03      50    3    1         0.3358863481E-04      0.2774812518E-03
          0                 4           1            50    3     1      -0.4276920413E-04      50    3    1        -0.2690681347E-05      0.2438235172E-04
          0                 5           1            50    3     1       0.2928402732E-05      75    4    1         0.1989134049E-06      0.1832563391E-05
          0                 6           1            50    3     1      -0.1746883120E-06      75    4    1        -0.1316021603E-07      0.1158514539E-06

    ------------------------------------------------
       NWT REQUIRED            6 OUTER ITERATIONS 
       AND A TOTAL OF          9 INNER ITERATIONS.
    ------------------------------------------------

 NO OUTPUT CONTROL FOR STRESS PERIOD   17   TIME STEP   18
 
 WELLS WITH REDUCED PUMPING FOR STRESS PERIOD    17 TIME STEP    18
   LAY   ROW   COL         APPL.Q          ACT.Q        GW-HEAD       CELL-BOT
     1     5    55  -0.519991E+00  -0.486048E+00   0.937036E-03   0.000000E+00
 
 
 SOLVING FOR HEAD 
                                                   Max.-Head-Change                         Max.-Flux-Residual
  Residual-Control   Outer-Iter.   Inner-Iter.     Column Row Layer    Maximum-Head-Change  Column Row Layer    Maximum-Flux-Residual          L2-NORM 
          0                 1           2            50    3     1       0.7365702654E-01      50    3    1         0.3200032362E-02      0.2845844260E-01
          0                 2           2            50    3     1      -0.6427162958E-02      50    3    1        -0.3260314789E-03      0.2820792859E-02
          0                 3           2            50    3     1       0.5292335828E-03      50    3    1         0.2930279294E-04      0.2785751412E-03
          0                 4           1            50    3     1      -0.4031650587E-04      75    4    1        -0.2401320229E-05      0.2460331446E-04
          0                 5           1            50    3     1       0.2747037710E-05      74    4    1         0.2038754197E-06      0.1856893859E-05
          0                 6           1            50    3     1      -0.1634500219E-06      74    4    1        -0.1374406722E-07      0.1177997099E-06

    ------------------------------------------------
       NWT REQUIRED            6 OUTER ITERATIONS 
       AND A TOTAL OF          9 INNER ITERATIONS.
    ------------------------------------------------

 NO OUTPUT CONTROL FOR STRESS PERIOD   17   TIME STEP   19
 
 WELLS WITH REDUCED PUMPING FOR STRESS PERIOD    17 TIME STEP    19
   LAY   ROW   COL         APPL.Q          ACT.Q        GW-HEAD       CELL-BOT
     1     5    55  -0.519989E+00  -0.485232E+00   0.934846E-03   0.000000E+00
 
 
 SOLVING FOR HEAD 
                                                   Max.-Head-Change                         Max.-Flux-Residual
  Residual-Control   Outer-Iter.   Inner-Iter.     Column Row Layer    Maximum-Head-Change  Column Row Layer    Maximum-Flux-Residual          L2-NORM 
          0                 1           2            50    3     1       0.6998728429E-01      50    3    1         0.2765557665E-02      0.2824954989E-01
          0                 2           2            50    3     1      -0.6086939264E-02      50    3    1        -0.2820011131E-03      0.2801491542E-02
          0                 3           2            50    3     1       0.4981334481E-03      50    3    1         0.2534353197E-04      0.2778627815E-03
          0                 4           1            50    3     1      -0.3771664911E-04      74    4    1        -0.2600099277E-05      0.2468293828E-04
          0                 5           1            50    3     1       0.2554977059E-05      74    4    1         0.2157396981E-06      0.1871379200E-05
          0                 6           1            50    3     1      -0.1515343967E-06      73    4    1        -0.1437787667E-07      0.1191604217E-06

    ------------------------------------------------
       NWT REQUIRED            6 OUTER ITERATIONS 
       AND A TOTAL OF          9 INNER ITERATIONS.
    ------------------------------------------------

 NO OUTPUT CONTROL FOR STRESS PERIOD   17   TIME STEP   20
 
 WELLS WITH REDUCED PUMPING FOR STRESS PERIOD    17 TIME STEP    20
   LAY   ROW   COL         APPL.Q          ACT.Q        GW-HEAD       CELL-BOT
     1     5    55  -0.520006E+00  -0.484346E+00   0.932445E-03   0.000000E+00
 
 
 SOLVING FOR HEAD 
                                                   Max.-Head-Change                         Max.-Flux-Residual
  Residual-Control   Outer-Iter.   Inner-Iter.     Column Row Layer    Maximum-Head-Change  Column Row Layer    Maximum-Flux-Residual          L2-NORM 
          0                 1           2            50    3     1       0.6665273129E-01      50    3    1         0.2410314452E-02      0.2810579238E-01
          0                 2           2            50    3     1      -0.5782771501E-02      50    3    1        -0.2459726870E-03      0.2792479703E-02
          0                 3           2            50    3     1       0.4706125369E-03      73    4    1         0.2510145653E-04      0.2778128442E-03
          0                 4           1            50    3     1      -0.3541774566E-04      73    4    1        -0.2716370018E-05      0.2479720371E-04
          0                 5           1            50    3     1       0.2383306253E-05      72    4    1         0.2254698241E-06      0.1887219017E-05
          0                 6           1            50    3     1      -0.1408025510E-06      72    4    1        -0.1527795490E-07      0.1205729965E-06

    ------------------------------------------------
       NWT REQUIRED            6 OUTER ITERATIONS 
       AND A TOTAL OF          9 INNER ITERATIONS.
    ------------------------------------------------

 NO OUTPUT CONTROL FOR STRESS PERIOD   17   TIME STEP   21
 
 WELLS WITH REDUCED PUMPING FOR STRESS PERIOD    17 TIME STEP    21
   LAY   ROW   COL         APPL.Q          ACT.Q        GW-HEAD       CELL-BOT
     1     5    55  -0.520000E+00  -0.483389E+00   0.929939E-03   0.000000E+00
 
 
 SOLVING FOR HEAD 
                                                   Max.-Head-Change                         Max.-Flux-Residual
  Residual-Control   Outer-Iter.   Inner-Iter.     Column Row Layer    Maximum-Head-Change  Column Row Layer    Maximum-Flux-Residual          L2-NORM 
          0                 1           2            69    1     1      -0.6589793743E-01      50    3    1         0.2085578513E-02      0.2793463428E-01
          0                 2           2            69    1     1       0.5907282820E-02      50    3    1        -0.2129814791E-03      0.2766351508E-02
          0                 3           2            69    1     1      -0.4836205403E-03      72    4    1         0.2548737342E-04      0.2761301280E-03
          0                 4           1            69    1     1       0.3564061220E-04      72    4    1        -0.2771574298E-05      0.2479203052E-04
          0                 5           1            69    1     1      -0.2329594826E-05      72    4    1         0.2315120664E-06      0.1894925144E-05
          0                 6           1            69    1     1       0.1332487007E-06      72    4    1        -0.1550853135E-07      0.1215161643E-06

    ------------------------------------------------
       NWT REQUIRED            6 OUTER ITERATIONS 
       AND A TOTAL OF          9 INNER ITERATIONS.
    ------------------------------------------------

 NO OUTPUT CONTROL FOR STRESS PERIOD   17   TIME STEP   22
 
 WELLS WITH REDUCED PUMPING FOR STRESS PERIOD    17 TIME STEP    22
   LAY   ROW   COL         APPL.Q          ACT.Q        GW-HEAD       CELL-BOT
     1     5    55  -0.519996E+00  -0.482362E+00   0.927275E-03   0.000000E+00
 
 
 SOLVING FOR HEAD 
                                                   Max.-Head-Change                         Max.-Flux-Residual
  Residual-Control   Outer-Iter.   Inner-Iter.     Column Row Layer    Maximum-Head-Change  Column Row Layer    Maximum-Flux-Residual          L2-NORM 
          0                 1           3            68    1     1      -0.7155495468E-01      69    3    1        -0.1874105910E-02      0.2787914736E-01
          0                 2           2            68    1     1       0.6387504492E-02      69    3    1         0.1873307220E-03      0.2755486868E-02
          0                 3           2            68    7     1      -0.5198194021E-03      71    4    1         0.2550230012E-04      0.2757442045E-03
          0                 4           1            68    1     1       0.3814463784E-04      70    4    1        -0.2791861183E-05      0.2488132994E-04
          0                 5           1            68    1     1      -0.2480705496E-05      70    4    1         0.2366314593E-06      0.1908095530E-05
          0                 6           1            67    1     1       0.1416479073E-06      70    4    1        -0.1602786703E-07      0.1227515833E-06

    ------------------------------------------------
       NWT REQUIRED            6 OUTER ITERATIONS 
       AND A TOTAL OF         10 INNER ITERATIONS.
    ------------------------------------------------

 NO OUTPUT CONTROL FOR STRESS PERIOD   17   TIME STEP   23
 
 WELLS WITH REDUCED PUMPING FOR STRESS PERIOD    17 TIME STEP    23
   LAY   ROW   COL         APPL.Q          ACT.Q        GW-HEAD       CELL-BOT
     1     5    55  -0.519993E+00  -0.481269E+00   0.924472E-03   0.000000E+00
 
 
 SOLVING FOR HEAD 
                                                   Max.-Head-Change                         Max.-Flux-Residual
  Residual-Control   Outer-Iter.   Inner-Iter.     Column Row Layer    Maximum-Head-Change  Column Row Layer    Maximum-Flux-Residual          L2-NORM 
          0                 1           3            67    1     1      -0.7714933342E-01      68    3    1        -0.1845124929E-02      0.2785114071E-01
          0                 2           2            67    1     1       0.6862603385E-02      68    3    1         0.1844223629E-03      0.2752845172E-02
          0                 3           2            67    1     1      -0.5561427550E-03      70    4    1         0.2723181695E-04      0.2763974554E-03
          0                 4           1            67    1     1       0.4063914148E-04      69    4    1        -0.3005091115E-05      0.2506678633E-04
          0                 5           1            67    1     1      -0.2634221141E-05      70    4    1         0.2500151162E-06      0.1926645450E-05
          0                 6           1            67    1     1       0.1498751694E-06      70    4    1        -0.1673024208E-07      0.1242203284E-06

    ------------------------------------------------
       NWT REQUIRED            6 OUTER ITERATIONS 
       AND A TOTAL OF         10 INNER ITERATIONS.
    ------------------------------------------------

 NO OUTPUT CONTROL FOR STRESS PERIOD   17   TIME STEP   24
 
 WELLS WITH REDUCED PUMPING FOR STRESS PERIOD    17 TIME STEP    24
   LAY   ROW   COL         APPL.Q          ACT.Q        GW-HEAD       CELL-BOT
     1     5    55  -0.519998E+00  -0.480141E+00   0.921596E-03   0.000000E+00
 
 
 SOLVING FOR HEAD 
                                                   Max.-Head-Change                         Max.-Flux-Residual
  Residual-Control   Outer-Iter.   Inner-Iter.     Column Row Layer    Maximum-Head-Change  Column Row Layer    Maximum-Flux-Residual          L2-NORM 
          0                 1           3            67    1     1      -0.8282213476E-01      67    2    1        -0.1806660437E-02      0.2778586253E-01
          0                 2           2            66    1     1       0.7316630266E-02      67    2    1         0.1805774085E-03      0.2746232566E-02
          0                 3           2            66    1     1      -0.5904667305E-03      69    4    1         0.2754294196E-04      0.2765443698E-03
          0                 4           1            66    1     1       0.4297014812E-04      68    4    1        -0.3021194249E-05      0.2518954812E-04
          0                 5           1            66    1     1      -0.2768809195E-05      68    4    1         0.2540269097E-06      0.1939008851E-05
          0                 6           1            66    1     1       0.1572108139E-06      68    4    1        -0.1709473452E-07      0.1252726208E-06

    ------------------------------------------------
       NWT REQUIRED            6 OUTER ITERATIONS 
       AND A TOTAL OF         10 INNER ITERATIONS.
    ------------------------------------------------

 NO OUTPUT CONTROL FOR STRESS PERIOD   17   TIME STEP   25
 
 WELLS WITH REDUCED PUMPING FOR STRESS PERIOD    17 TIME STEP    25
   LAY   ROW   COL         APPL.Q          ACT.Q        GW-HEAD       CELL-BOT
     1     5    55  -0.520006E+00  -0.478981E+00   0.918667E-03   0.000000E+00
 
 
 SOLVING FOR HEAD 
                                                   Max.-Head-Change                         Max.-Flux-Residual
  Residual-Control   Outer-Iter.   Inner-Iter.     Column Row Layer    Maximum-Head-Change  Column Row Layer    Maximum-Flux-Residual          L2-NORM 
          0                 1           3            71    1     1      -0.8860237006E-01      67    1    1        -0.1764190657E-02      0.2776453162E-01
          0                 2           2            66    1     1       0.7780563396E-02      67    1    1         0.1763037995E-03      0.2744074214E-02
          0                 3           2            66    1     1      -0.6232883468E-03      67    4    1         0.2740387418E-04      0.2767438266E-03
          0                 4           1            65    1     1       0.4519727035E-04      67    4    1        -0.3011232989E-05      0.2529723943E-04
          0                 5           1            65    1     1      -0.2905134227E-05      68    4    1         0.2468004574E-06      0.1947404569E-05
          0                 6           1            65    1     1       0.1646077535E-06      68    4    1        -0.1667985927E-07      0.1259808698E-06

    ------------------------------------------------
       NWT REQUIRED            6 OUTER ITERATIONS 
       AND A TOTAL OF         10 INNER ITERATIONS.
    ------------------------------------------------

 NO OUTPUT CONTROL FOR STRESS PERIOD   17   TIME STEP   26
 
 WELLS WITH REDUCED PUMPING FOR STRESS PERIOD    17 TIME STEP    26
   LAY   ROW   COL         APPL.Q          ACT.Q        GW-HEAD       CELL-BOT
     1     5    55  -0.520003E+00  -0.477859E+00   0.915892E-03   0.000000E+00
 
 
 SOLVING FOR HEAD 
                                                   Max.-Head-Change                         Max.-Flux-Residual
  Residual-Control   Outer-Iter.   Inner-Iter.     Column Row Layer    Maximum-Head-Change  Column Row Layer    Maximum-Flux-Residual          L2-NORM 
          0                 1           3            71    1     1      -0.9769679247E-01      71    3    1        -0.1726032792E-02      0.2768067839E-01
          0                 2           2            72    7     1       0.8483795826E-02      71    3    1         0.1725685684E-03      0.2738508103E-02
          0                 3           2            72    7     1      -0.6688411684E-03      66    4    1         0.2781281597E-04      0.2768733568E-03
          0                 4           1            72    7     1       0.4733012288E-04      66    4    1        -0.3042194718E-05      0.2540248941E-04
          0                 5           1            65    1     1      -0.3020555791E-05      66    4    1         0.2553202467E-06      0.1953944708E-05
          0                 6           1            64    1     1       0.1707723977E-06      66    4    1        -0.1721851284E-07      0.1264870924E-06

    ------------------------------------------------
       NWT REQUIRED            6 OUTER ITERATIONS 
       AND A TOTAL OF         10 INNER ITERATIONS.
    ------------------------------------------------

 NO OUTPUT CONTROL FOR STRESS PERIOD   17   TIME STEP   27
 
 WELLS WITH REDUCED PUMPING FOR STRESS PERIOD    17 TIME STEP    27
   LAY   ROW   COL         APPL.Q          ACT.Q        GW-HEAD       CELL-BOT
     1     5    55  -0.520001E+00  -0.476587E+00   0.912779E-03   0.000000E+00
 
 
 SOLVING FOR HEAD 
                                                   Max.-Head-Change                         Max.-Flux-Residual
  Residual-Control   Outer-Iter.   Inner-Iter.     Column Row Layer    Maximum-Head-Change  Column Row Layer    Maximum-Flux-Residual          L2-NORM 
          0                 1           3            71    1     1      -0.1075338436E+00      71    3    1        -0.1730632814E-02      0.2759009033E-01
          0                 2           2            72    7     1       0.9318382906E-02      71    3    1         0.1730181407E-03      0.2734399169E-02
          0                 3           2            72    7     1      -0.7323600536E-03      65    4    1         0.2694325592E-04      0.2769931132E-03
          0                 4           1            72    7     1       0.5155039464E-04      65    4    1        -0.2953597542E-05      0.2548795668E-04
          0                 5           1            71    7     1      -0.3132196045E-05      70    4    1         0.2430862889E-06      0.1955446278E-05
          0                 6           1            63    1     1       0.1770365269E-06      70    4    1        -0.1697006802E-07      0.1265452000E-06

    ------------------------------------------------
       NWT REQUIRED            6 OUTER ITERATIONS 
       AND A TOTAL OF         10 INNER ITERATIONS.
    ------------------------------------------------

 NO OUTPUT CONTROL FOR STRESS PERIOD   17   TIME STEP   28
 
 WELLS WITH REDUCED PUMPING FOR STRESS PERIOD    17 TIME STEP    28
   LAY   ROW   COL         APPL.Q          ACT.Q        GW-HEAD       CELL-BOT
     1     5    55  -0.520001E+00  -0.475670E+00   0.910556E-03   0.000000E+00
 
 
 SOLVING FOR HEAD 
                                                   Max.-Head-Change                         Max.-Flux-Residual
  Residual-Control   Outer-Iter.   Inner-Iter.     Column Row Layer    Maximum-Head-Change  Column Row Layer    Maximum-Flux-Residual          L2-NORM 
          0                 1           3            71    1     1      -0.1181190668E+00      71    3    1        -0.1730504545E-02      0.2740494825E-01
          0                 2           2            72    7     1       0.1021630339E-01      71    3    1         0.1729959525E-03      0.2721983718E-02
          0                 3           2            72    7     1      -0.8007553868E-03      64    4    1         0.2599635934E-04      0.2764602006E-03
          0                 4           1            72    7     1       0.5607862092E-04      64    4    1        -0.2855408431E-05      0.2552055294E-04
          0                 5           1            71    7     1      -0.3360809983E-05      70    4    1         0.2452028802E-06      0.1950917152E-05
          0                 6           1            63    1     1       0.1835102008E-06      70    4    1        -0.1721197407E-07      0.1261302430E-06

    ------------------------------------------------
       NWT REQUIRED            6 OUTER ITERATIONS 
       AND A TOTAL OF         10 INNER ITERATIONS.
    ------------------------------------------------

 NO OUTPUT CONTROL FOR STRESS PERIOD   17   TIME STEP   29
 
 WELLS WITH REDUCED PUMPING FOR STRESS PERIOD    17 TIME STEP    29
   LAY   ROW   COL         APPL.Q          ACT.Q        GW-HEAD       CELL-BOT
     1     5    55  -0.519996E+00  -0.474301E+00   0.907283E-03   0.000000E+00
 
 
 SOLVING FOR HEAD 
                                                   Max.-Head-Change                         Max.-Flux-Residual
  Residual-Control   Outer-Iter.   Inner-Iter.     Column Row Layer    Maximum-Head-Change  Column Row Layer    Maximum-Flux-Residual          L2-NORM 
          0                 1           3            71    1     1      -0.1294225740E+00      71    3    1        -0.1726953418E-02      0.2720909304E-01
          0                 2           2            72    7     1       0.1116099005E-01      71    3    1         0.1726287795E-03      0.2704762890E-02
          0                 3           2            72    7     1      -0.8719652657E-03      63    4    1         0.2446972909E-04      0.2751899427E-03
          0                 4           1            72    7     1       0.6073204649E-04      70    4    1        -0.2732600890E-05      0.2547524983E-04
          0                 5           1            71    7     1      -0.3588175630E-05      70    4    1         0.2460070743E-06      0.1937097645E-05
          0                 6           1            71    7     1       0.1903637359E-06      70    4    1        -0.1734622934E-07      0.1250389112E-06

    ------------------------------------------------
       NWT REQUIRED            6 OUTER ITERATIONS 
       AND A TOTAL OF         10 INNER ITERATIONS.
    ------------------------------------------------

 NO OUTPUT CONTROL FOR STRESS PERIOD   17   TIME STEP   30
 
 WELLS WITH REDUCED PUMPING FOR STRESS PERIOD    17 TIME STEP    30
   LAY   ROW   COL         APPL.Q          ACT.Q        GW-HEAD       CELL-BOT
     1     5    55  -0.519997E+00  -0.472740E+00   0.903588E-03   0.000000E+00
 



 STREAM LISTING     PERIOD     17   STEP       30

 LAYER ROW COL. STREAM  RCH.   FLOW INTO    STREAM     FLOW OUT OF   OVRLND.    DIRECT     STREAM      STREAM      STREAM     STREAM  STREAMBED   FLOW TO   CHNG. UNSAT. 
                SEG.NO.  NO.   STRM. RCH.    LOSS       STRM. RCH.   RUNOFF     PRECIP       ET         HEAD        DEPTH      WIDTH  CONDCTNC.   WAT. TAB.

   1    4    1     1     1    1.7470E+01  4.6755E-03   1.7465E+01  0.000E+00  0.000E+00  0.000E+00  1.43029E+02  3.179E+00  5.616E+00  1.271E-03  4.614E-03  6.135E-05
   1    4    2     1     2    1.7465E+01  4.6745E-03   1.7461E+01  0.000E+00  0.000E+00  0.000E+00  1.42728E+02  3.178E+00  5.615E+00  1.271E-03  4.613E-03  6.156E-05
   1    4    3     1     3    1.7461E+01  4.6734E-03   1.7456E+01  0.000E+00  0.000E+00  0.000E+00  1.42428E+02  3.178E+00  5.615E+00  1.271E-03  4.611E-03  6.195E-05
   1    4    4     1     4    1.7456E+01  4.6724E-03   1.7451E+01  0.000E+00  0.000E+00  0.000E+00  1.42127E+02  3.177E+00  5.614E+00  1.271E-03  4.610E-03  6.252E-05
   1    4    5     1     5    1.7451E+01  4.6714E-03   1.7447E+01  0.000E+00  0.000E+00  0.000E+00  1.41827E+02  3.177E+00  5.614E+00  1.270E-03  4.608E-03  6.328E-05
   1    4    6     1     6    1.7447E+01  4.6703E-03   1.7442E+01  0.000E+00  0.000E+00  0.000E+00  1.41527E+02  3.177E+00  5.613E+00  1.270E-03  4.606E-03  6.422E-05
   1    4    7     1     7    1.7442E+01  4.6693E-03   1.7437E+01  0.000E+00  0.000E+00  0.000E+00  1.41226E+02  3.176E+00  5.613E+00  1.270E-03  4.604E-03  6.534E-05
   1    4    8     1     8    1.7437E+01  4.6683E-03   1.7433E+01  0.000E+00  0.000E+00  0.000E+00  1.40926E+02  3.176E+00  5.612E+00  1.270E-03  4.602E-03  6.663E-05
   1    4    9     1     9    1.7433E+01  4.6672E-03   1.7428E+01  0.000E+00  0.000E+00  0.000E+00  1.40625E+02  3.175E+00  5.612E+00  1.270E-03  4.599E-03  6.808E-05
   1    4   10     1    10    1.7428E+01  4.6662E-03   1.7423E+01  0.000E+00  0.000E+00  0.000E+00  1.40325E+02  3.175E+00  5.611E+00  1.270E-03  4.597E-03  6.968E-05
   1    4   11     1    11    1.7423E+01  4.6652E-03   1.7419E+01  0.000E+00  0.000E+00  0.000E+00  1.40025E+02  3.175E+00  5.611E+00  1.270E-03  4.594E-03  7.143E-05
   1    4   12     1    12    1.7419E+01  4.6642E-03   1.7414E+01  0.000E+00  0.000E+00  0.000E+00  1.39724E+02  3.174E+00  5.610E+00  1.269E-03  4.591E-03  7.332E-05
   1    4   13     1    13    1.7414E+01  4.6631E-03   1.7409E+01  0.000E+00  0.000E+00  0.000E+00  1.39424E+02  3.174E+00  5.610E+00  1.269E-03  4.588E-03  7.532E-05
   1    4   14     1    14    1.7409E+01  4.6621E-03   1.7405E+01  0.000E+00  0.000E+00  0.000E+00  1.39123E+02  3.173E+00  5.609E+00  1.269E-03  4.585E-03  7.745E-05
   1    4   15     1    15    1.7405E+01  4.6611E-03   1.7400E+01  0.000E+00  0.000E+00  0.000E+00  1.38823E+02  3.173E+00  5.609E+00  1.269E-03  4.581E-03  7.971E-05
   1    4   16     1    16    1.7400E+01  4.6600E-03   1.7395E+01  0.000E+00  0.000E+00  0.000E+00  1.38522E+02  3.172E+00  5.608E+00  1.269E-03  4.594E-03  6.599E-05
   1    4   17     1    17    1.7395E+01  4.6590E-03   1.7391E+01  0.000E+00  0.000E+00  0.000E+00  1.38222E+02  3.172E+00  5.608E+00  1.269E-03  4.591E-03  6.824E-05
   1    4   18     1    18    1.7391E+01  4.6580E-03   1.7386E+01  0.000E+00  0.000E+00  0.000E+00  1.37922E+02  3.172E+00  5.607E+00  1.269E-03  4.587E-03  7.081E-05
   1    4   19     1    19    1.7386E+01  4.6569E-03   1.7381E+01  0.000E+00  0.000E+00  0.000E+00  1.37621E+02  3.171E+00  5.607E+00  1.268E-03  4.584E-03  7.344E-05
   1    4   20     1    20    1.7381E+01  4.6559E-03   1.7377E+01  0.000E+00  0.000E+00  0.000E+00  1.37321E+02  3.171E+00  5.606E+00  1.268E-03  4.580E-03  7.611E-05
   1    4   21     1    21    1.7377E+01  4.6549E-03   1.7372E+01  0.000E+00  0.000E+00  0.000E+00  1.37020E+02  3.170E+00  5.606E+00  1.268E-03  4.576E-03  7.879E-05
   1    4   22     1    22    1.7372E+01  4.6539E-03   1.7367E+01  0.000E+00  0.000E+00  0.000E+00  1.36720E+02  3.170E+00  5.605E+00  1.268E-03  4.572E-03  8.148E-05
   1    4   23     1    23    1.7367E+01  4.6528E-03   1.7363E+01  0.000E+00  0.000E+00  0.000E+00  1.36420E+02  3.170E+00  5.605E+00  1.268E-03  4.569E-03  8.415E-05
   1    4   24     1    24    1.7363E+01  4.6518E-03   1.7358E+01  0.000E+00  0.000E+00  0.000E+00  1.36119E+02  3.169E+00  5.604E+00  1.268E-03  4.565E-03  8.677E-05
   1    4   25     1    25    1.7358E+01  4.6508E-03   1.7353E+01  0.000E+00  0.000E+00  0.000E+00  1.35819E+02  3.169E+00  5.604E+00  1.268E-03  4.561E-03  8.932E-05
   1    4   26     1    26    1.7353E+01  4.6497E-03   1.7349E+01  0.000E+00  0.000E+00  0.000E+00  1.35518E+02  3.168E+00  5.603E+00  1.268E-03  4.558E-03  9.178E-05
   1    4   27     1    27    1.7349E+01  4.6487E-03   1.7344E+01  0.000E+00  0.000E+00  0.000E+00  1.35218E+02  3.168E+00  5.603E+00  1.267E-03  4.555E-03  9.412E-05
   1    4   28     1    28    1.7344E+01  4.6477E-03   1.7339E+01  0.000E+00  0.000E+00  0.000E+00  1.34917E+02  3.167E+00  5.602E+00  1.267E-03  4.551E-03  9.631E-05
   1    4   29     1    29    1.7339E+01  4.6467E-03   1.7335E+01  0.000E+00  0.000E+00  0.000E+00  1.34617E+02  3.167E+00  5.602E+00  1.267E-03  4.548E-03  9.831E-05
   1    4   30     1    30    1.7335E+01  4.6456E-03   1.7330E+01  0.000E+00  0.000E+00  0.000E+00  1.34317E+02  3.167E+00  5.601E+00  1.267E-03  4.545E-03  1.002E-04
   1    4   31     1    31    1.7330E+01  4.6446E-03   1.7326E+01  0.000E+00  0.000E+00  0.000E+00  1.34016E+02  3.166E+00  5.601E+00  1.267E-03  4.543E-03  1.018E-04
   1    4   32     1    32    1.7326E+01  4.6436E-03   1.7321E+01  0.000E+00  0.000E+00  0.000E+00  1.33716E+02  3.166E+00  5.600E+00  1.267E-03  4.540E-03  1.032E-04
   1    4   33     1    33    1.7321E+01  4.6425E-03   1.7316E+01  0.000E+00  0.000E+00  0.000E+00  1.33415E+02  3.165E+00  5.600E+00  1.267E-03  4.542E-03  1.001E-04
   1    4   34     1    34    1.7316E+01  4.6415E-03   1.7312E+01  0.000E+00  0.000E+00  0.000E+00  1.33115E+02  3.165E+00  5.599E+00  1.266E-03  4.570E-03  7.176E-05
   1    4   35     1    35    1.7312E+01  4.6405E-03   1.7307E+01  0.000E+00  0.000E+00  0.000E+00  1.32815E+02  3.165E+00  5.599E+00  1.266E-03  4.600E-03  4.080E-05
   1    4   36     1    36    1.7307E+01  4.6395E-03   1.7302E+01  0.000E+00  0.000E+00  0.000E+00  1.32514E+02  3.164E+00  5.598E+00  1.266E-03  4.630E-03  9.460E-06
   1    4   37     1    37    1.7302E+01  4.6384E-03   1.7298E+01  0.000E+00  0.000E+00  0.000E+00  1.32214E+02  3.164E+00  5.598E+00  1.266E-03  4.655E-03 -1.706E-05
   1    4   38     1    38    1.7298E+01  4.6374E-03   1.7293E+01  0.000E+00  0.000E+00  0.000E+00  1.31913E+02  3.163E+00  5.597E+00  1.266E-03  4.691E-03 -5.359E-05
   1    4   39     1    39    1.7293E+01  4.6364E-03   1.7288E+01  0.000E+00  0.000E+00  0.000E+00  1.31613E+02  3.163E+00  5.597E+00  1.266E-03  4.735E-03 -9.836E-05
   1    4   40     1    40    1.7288E+01  4.6354E-03   1.7284E+01  0.000E+00  0.000E+00  0.000E+00  1.31312E+02  3.162E+00  5.596E+00  1.266E-03  4.774E-03 -1.384E-04
   1    4   41     1    41    1.7284E+01  4.6343E-03   1.7279E+01  0.000E+00  0.000E+00  0.000E+00  1.31012E+02  3.162E+00  5.596E+00  1.266E-03  4.840E-03 -2.062E-04
   1    4   42     1    42    1.7279E+01  4.6333E-03   1.7275E+01  0.000E+00  0.000E+00  0.000E+00  1.30712E+02  3.162E+00  5.595E+00  1.265E-03  4.746E-03 -1.132E-04
   1    4   43     1    43    1.7275E+01  4.6323E-03   1.7270E+01  0.000E+00  0.000E+00  0.000E+00  1.30411E+02  3.161E+00  5.595E+00  1.265E-03  4.112E-03  5.205E-04
   1    4   44     1    44    1.7270E+01  4.6313E-03   1.7265E+01  0.000E+00  0.000E+00  0.000E+00  1.30111E+02  3.161E+00  5.594E+00  1.265E-03  4.118E-03  5.136E-04
   1    4   45     1    45    1.7265E+01  4.6302E-03   1.7261E+01  0.000E+00  0.000E+00  0.000E+00  1.29810E+02  3.160E+00  5.594E+00  1.265E-03  4.166E-03  4.645E-04
   1    4   46     1    46    1.7261E+01  4.6292E-03   1.7256E+01  0.000E+00  0.000E+00  0.000E+00  1.29510E+02  3.160E+00  5.593E+00  1.265E-03  4.178E-03  4.513E-04
   1    4   47     1    47    1.7256E+01  4.6282E-03   1.7251E+01  0.000E+00  0.000E+00  0.000E+00  1.29210E+02  3.160E+00  5.593E+00  1.265E-03  4.193E-03  4.356E-04
   1    4   48     1    48    1.7251E+01  4.6272E-03   1.7247E+01  0.000E+00  0.000E+00  0.000E+00  1.28909E+02  3.159E+00  5.592E+00  1.265E-03  4.210E-03  4.173E-04
   1    4   49     1    49    1.7247E+01  4.6261E-03   1.7242E+01  0.000E+00  0.000E+00  0.000E+00  1.28609E+02  3.159E+00  5.592E+00  1.264E-03  4.230E-03  3.964E-04
   1    4   50     1    50    1.7242E+01  4.6251E-03   1.7237E+01  0.000E+00  0.000E+00  0.000E+00  1.28308E+02  3.158E+00  5.591E+00  1.264E-03  4.294E-03  3.312E-04
   1    4   51     1    51    1.7237E+01  4.6241E-03   1.7233E+01  0.000E+00  0.000E+00  0.000E+00  1.28008E+02  3.158E+00  5.591E+00  1.264E-03  4.304E-03  3.200E-04
   1    4   52     1    52    1.7233E+01  4.6231E-03   1.7228E+01  0.000E+00  0.000E+00  0.000E+00  1.27707E+02  3.157E+00  5.590E+00  1.264E-03  4.297E-03  3.263E-04
   1    4   53     1    53    1.7228E+01  4.6220E-03   1.7224E+01  0.000E+00  0.000E+00  0.000E+00  1.27407E+02  3.157E+00  5.590E+00  1.264E-03  4.281E-03  3.415E-04
   1    4   54     1    54    1.7224E+01  4.6210E-03   1.7219E+01  0.000E+00  0.000E+00  0.000E+00  1.27107E+02  3.157E+00  5.589E+00  1.264E-03  4.263E-03  3.577E-04
   1    4   55     1    55    1.7219E+01  4.6200E-03   1.7214E+01  0.000E+00  0.000E+00  0.000E+00  1.26806E+02  3.156E+00  5.589E+00  1.264E-03  4.249E-03  3.713E-04
   1    4   56     1    56    1.7214E+01  4.6190E-03   1.7210E+01  0.000E+00  0.000E+00  0.000E+00  1.26506E+02  3.156E+00  5.588E+00  1.263E-03  4.183E-03  4.355E-04
   1    4   57     1    57    1.7210E+01  4.6179E-03   1.7205E+01  0.000E+00  0.000E+00  0.000E+00  1.26205E+02  3.155E+00  5.588E+00  1.263E-03  4.152E-03  4.660E-04
   1    4   58     1    58    1.7205E+01  4.6169E-03   1.7201E+01  0.000E+00  0.000E+00  0.000E+00  1.25905E+02  3.155E+00  5.587E+00  1.263E-03  4.134E-03  4.830E-04
   1    4   59     1    59    1.7201E+01  4.6159E-03   1.7196E+01  0.000E+00  0.000E+00  0.000E+00  1.25605E+02  3.155E+00  5.587E+00  1.263E-03  4.119E-03  4.967E-04
   1    4   60     1    60    1.7196E+01  4.6149E-03   1.7191E+01  0.000E+00  0.000E+00  0.000E+00  1.25304E+02  3.154E+00  5.586E+00  1.263E-03  4.107E-03  5.078E-04
   1    4   61     1    61    1.7191E+01  4.6139E-03   1.7187E+01  0.000E+00  0.000E+00  0.000E+00  1.25004E+02  3.154E+00  5.586E+00  1.263E-03  4.061E-03  5.528E-04
   1    4   62     1    62    1.7187E+01  4.6128E-03   1.7182E+01  0.000E+00  0.000E+00  0.000E+00  1.24703E+02  3.153E+00  5.585E+00  1.263E-03  4.055E-03  5.583E-04
   1    4   63     1    63    1.7182E+01  4.6118E-03   1.7177E+01  0.000E+00  0.000E+00  0.000E+00  1.24403E+02  3.153E+00  5.585E+00  1.263E-03  4.651E-03 -3.962E-05
   1    4   64     1    64    1.7177E+01  4.6108E-03   1.7173E+01  0.000E+00  0.000E+00  0.000E+00  1.24102E+02  3.152E+00  5.584E+00  1.262E-03  4.769E-03 -1.581E-04
   1    4   65     1    65    1.7173E+01  4.6098E-03   1.7168E+01  0.000E+00  0.000E+00  0.000E+00  1.23802E+02  3.152E+00  5.584E+00  1.262E-03  4.714E-03 -1.045E-04
   1    4   66     1    66    1.7168E+01  4.6087E-03   1.7164E+01  0.000E+00  0.000E+00  0.000E+00  1.23502E+02  3.152E+00  5.583E+00  1.262E-03  4.649E-03 -4.024E-05
   1    4   67     1    67    1.7164E+01  4.6077E-03   1.7159E+01  0.000E+00  0.000E+00  0.000E+00  1.23201E+02  3.151E+00  5.583E+00  1.262E-03  4.603E-03  5.102E-06
   1    4   68     1    68    1.7159E+01  4.6067E-03   1.7154E+01  0.000E+00  0.000E+00  0.000E+00  1.22901E+02  3.151E+00  5.582E+00  1.262E-03  4.564E-03  4.318E-05
   1    4   69     1    69    1.7154E+01  4.6057E-03   1.7150E+01  0.000E+00  0.000E+00  0.000E+00  1.22600E+02  3.150E+00  5.582E+00  1.262E-03  4.538E-03  6.777E-05
   1    4   70     1    70    1.7150E+01  4.6047E-03   1.7145E+01  0.000E+00  0.000E+00  0.000E+00  1.22300E+02  3.150E+00  5.581E+00  1.262E-03  4.502E-03  1.026E-04
   1    4   71     1    71    1.7145E+01  4.6036E-03   1.7141E+01  0.000E+00  0.000E+00  0.000E+00  1.22000E+02  3.150E+00  5.581E+00  1.261E-03  4.467E-03  1.369E-04
   1    4   72     1    72    1.7141E+01  4.6026E-03   1.7136E+01  0.000E+00  0.000E+00  0.000E+00  1.21699E+02  3.149E+00  5.580E+00  1.261E-03  4.443E-03  1.592E-04
   1    4   73     1    73    1.7136E+01  4.6016E-03   1.7131E+01  0.000E+00  0.000E+00  0.000E+00  1.21399E+02  3.149E+00  5.580E+00  1.261E-03  4.444E-03  1.579E-04
   1    4   74     1    74    1.7131E+01  4.6006E-03   1.7127E+01  0.000E+00  0.000E+00  0.000E+00  1.21098E+02  3.148E+00  5.579E+00  1.261E-03  4.445E-03  1.560E-04
   1    4   75     1    75    1.7127E+01  4.5996E-03   1.7122E+01  0.000E+00  0.000E+00  0.000E+00  1.20798E+02  3.148E+00  5.579E+00  1.261E-03  4.446E-03  1.535E-04
   1    4   76     1    76    1.7122E+01  4.5985E-03   1.7118E+01  0.000E+00  0.000E+00  0.000E+00  1.20497E+02  3.147E+00  5.578E+00  1.261E-03  4.448E-03  1.507E-04
   1    4   77     1    77    1.7118E+01  4.5975E-03   1.7113E+01  0.000E+00  0.000E+00  0.000E+00  1.20197E+02  3.147E+00  5.578E+00  1.261E-03  4.450E-03  1.474E-04
   1    4   78     1    78    1.7113E+01  4.5965E-03   1.7108E+01  0.000E+00  0.000E+00  0.000E+00  1.19897E+02  3.147E+00  5.577E+00  1.260E-03  4.453E-03  1.436E-04
   1    4   79     1    79    1.7108E+01  4.5955E-03   1.7104E+01  0.000E+00  0.000E+00  0.000E+00  1.19596E+02  3.146E+00  5.577E+00  1.260E-03  4.456E-03  1.394E-04
   1    4   80     1    80    1.7104E+01  4.5945E-03   1.7099E+01  0.000E+00  0.000E+00  0.000E+00  1.19296E+02  3.146E+00  5.576E+00  1.260E-03  4.460E-03  1.348E-04
   1    4   81     1    81    1.7099E+01  4.5934E-03   1.7095E+01  0.000E+00  0.000E+00  0.000E+00  1.18995E+02  3.145E+00  5.576E+00  1.260E-03  4.464E-03  1.298E-04
   1    4   82     1    82    1.7095E+01  4.5924E-03   1.7090E+01  0.000E+00  0.000E+00  0.000E+00  1.18695E+02  3.145E+00  5.575E+00  1.260E-03  4.474E-03  1.188E-04
   1    4   83     1    83    1.7090E+01  4.5914E-03   1.7085E+01  0.000E+00  0.000E+00  0.000E+00  1.18395E+02  3.145E+00  5.575E+00  1.260E-03  4.479E-03  1.126E-04
   1    4   84     1    84    1.7085E+01  4.5904E-03   1.7081E+01  0.000E+00  0.000E+00  0.000E+00  1.18094E+02  3.144E+00  5.574E+00  1.260E-03  4.484E-03  1.060E-04
   1    4   85     1    85    1.7081E+01  4.5894E-03   1.7076E+01  0.000E+00  0.000E+00  0.000E+00  1.17794E+02  3.144E+00  5.574E+00  1.260E-03  4.490E-03  9.921E-05
   1    4   86     1    86    1.7076E+01  4.5884E-03   1.7072E+01  0.000E+00  0.000E+00  0.000E+00  1.17493E+02  3.143E+00  5.573E+00  1.259E-03  4.496E-03  9.213E-05
   1    4   87     1    87    1.7072E+01  4.5873E-03   1.7067E+01  0.000E+00  0.000E+00  0.000E+00  1.17193E+02  3.143E+00  5.573E+00  1.259E-03  4.502E-03  8.484E-05
   1    4   88     1    88    1.7067E+01  4.5863E-03   1.7062E+01  0.000E+00  0.000E+00  0.000E+00  1.16892E+02  3.142E+00  5.572E+00  1.259E-03  4.509E-03  7.739E-05
   1    4   89     1    89    1.7062E+01  4.5853E-03   1.7058E+01  0.000E+00  0.000E+00  0.000E+00  1.16592E+02  3.142E+00  5.572E+00  1.259E-03  4.515E-03  6.983E-05
   1    4   90     1    90    1.7058E+01  4.5843E-03   1.7053E+01  0.000E+00  0.000E+00  0.000E+00  1.16292E+02  3.142E+00  5.571E+00  1.259E-03  4.522E-03  6.219E-05
   1    4   91     1    91    1.7053E+01  4.5833E-03   1.7049E+01  0.000E+00  0.000E+00  0.000E+00  1.15991E+02  3.141E+00  5.571E+00  1.259E-03  4.529E-03  5.451E-05
   1    4   92     1    92    1.7049E+01  4.5823E-03   1.7044E+01  0.000E+00  0.000E+00  0.000E+00  1.15691E+02  3.141E+00  5.570E+00  1.259E-03  4.535E-03  4.681E-05
   1    4   93     1    93    1.7044E+01  4.5812E-03   1.7040E+01  0.000E+00  0.000E+00  0.000E+00  1.15390E+02  3.140E+00  5.570E+00  1.258E-03  4.542E-03  3.909E-05
   1    4   94     1    94    1.7040E+01  4.5802E-03   1.7035E+01  0.000E+00  0.000E+00  0.000E+00  1.15090E+02  3.140E+00  5.569E+00  1.258E-03  4.549E-03  3.134E-05
   1    4   95     1    95    1.7035E+01  4.5792E-03   1.7030E+01  0.000E+00  0.000E+00  0.000E+00  1.14790E+02  3.140E+00  5.569E+00  1.258E-03  4.556E-03  2.353E-05
   1    4   96     1    96    1.7030E+01  4.5782E-03   1.7026E+01  0.000E+00  0.000E+00  0.000E+00  1.14489E+02  3.139E+00  5.568E+00  1.258E-03  4.563E-03  1.562E-05
   1    4   97     1    97    1.7026E+01  4.5772E-03   1.7021E+01  0.000E+00  0.000E+00  0.000E+00  1.14189E+02  3.139E+00  5.568E+00  1.258E-03  4.570E-03  7.554E-06
   1    4   98     1    98    1.7021E+01  4.5762E-03   1.7017E+01  0.000E+00  0.000E+00  0.000E+00  1.13888E+02  3.138E+00  5.567E+00  1.258E-03  4.577E-03 -7.049E-07
   1    4   99     1    99    1.7017E+01  4.5751E-03   1.7012E+01  0.000E+00  0.000E+00  0.000E+00  1.13588E+02  3.138E+00  5.567E+00  1.258E-03  4.584E-03 -9.167E-06
   1    4  100     1   100    1.7012E+01  4.5741E-03   1.7008E+01  0.000E+00  0.000E+00  0.000E+00  1.13287E+02  3.137E+00  5.566E+00  1.257E-03  4.592E-03 -1.782E-05



1
  VOLUMETRIC BUDGET FOR UNSATURATED ZONE BENEATH STREAMS AT END OF TIME STEP    30 STRESS PERIOD  17
  ------------------------------------------------------------------------------------------------

    CUMULATIVE VOLUMES             L**3    RATES FOR THIS TIME STEP         L**3/T
    ------------------                     ------------------------


          STREAM LOSS =     16728375.0000            STREAM LOSS =            0.4625
    CHANGE IN STORAGE =      1936563.1250      CHANGE IN STORAGE =        1.3324E-02
       RECHARGE TO GW =     14796589.0000         RECHARGE TO GW =            0.4491

             TOTAL IN =     16728375.0000               TOTAL IN =            0.4625

            TOTAL OUT =     16733152.0000              TOTAL OUT =            0.4625

             IN - OUT =        -4777.0000               IN - OUT =        1.1921E-07

  PERCENT DISCREPANCY =           -0.01      PERCENT DISCREPANCY =             0.00



1
  VOLUMETRIC BUDGET FOR ENTIRE MODEL AT END OF TIME STEP   30, STRESS PERIOD  17
  ------------------------------------------------------------------------------

     CUMULATIVE VOLUMES      L**3       RATES FOR THIS TIME STEP      L**3/T
     ------------------                 ------------------------

           IN:                                      IN:
           ---                                      ---
             STORAGE     =    80646200.0000               STORAGE     =           0.6446
       CONSTANT HEAD     =           0.0000         CONSTANT HEAD     =           0.0000
               WELLS     =           0.0000                 WELLS     =           0.0000
     HEAD DEP BOUNDS     =           0.0000       HEAD DEP BOUNDS     =           0.0000
      STREAM LEAKAGE     =    14796601.0000        STREAM LEAKAGE     =           0.4491

                TOTAL IN =    95442800.0000                  TOTAL IN =           1.0938

          OUT:                                     OUT:
          ----                                     ----
             STORAGE     =     2413452.2500               STORAGE     =       5.3286E-03
       CONSTANT HEAD     =           0.0000         CONSTANT HEAD     =           0.0000
               WELLS     =    78263472.0000                 WELLS     =           0.9927
     HEAD DEP BOUNDS     =    14765922.0000       HEAD DEP BOUNDS     =       9.5694E-02
      STREAM LEAKAGE     =           0.0000        STREAM LEAKAGE     =           0.0000

               TOTAL OUT =    95442848.0000                 TOTAL OUT =           1.0938

                IN - OUT =         -48.0000                  IN - OUT =           0.0000

     PERCENT DISCREPANCY =          -0.00         PERCENT DISCREPANCY =           0.00






         TIME SUMMARY AT END OF TIME STEP   30 IN STRESS PERIOD   17
                    SECONDS     MINUTES      HOURS       DAYS        YEARS
                    -----------------------------------------------------------
   TIME STEP LENGTH 2.49961E+05  4166.0      69.434      2.8931     7.92080E-03
 STRESS PERIOD TIME 2.59200E+06  43200.      720.00      30.000     8.21355E-02
         TOTAL TIME 4.40640E+07 7.34400E+05  12240.      510.00      1.3963    
1
1
                            STRESS PERIOD NO.   18, LENGTH =   2592000.    
                            -----------------------------------------------

                              NUMBER OF TIME STEPS =    30

                               MULTIPLIER FOR DELT =     1.100

                            INITIAL TIME STEP SIZE =   15757.40    

 REUSING NON-PARAMETER WELLS FROM LAST STRESS PERIOD

      1 WELL 

 REUSING NON-PARAMETER GHB CELLS FROM LAST STRESS PERIOD

      7 GHB CELLS



 CLASSIFICATION & COUNT OF STREAM SEGMENTS BASED ON SOURCE OF INFLOW:

                HEADWATER     DIVERSION     RECEIVES TRIBUTARY FLOW
                ---------     ---------     -----------------------
                     1              0               0



                    INPUT DATA FOR EACH STREAM SEGMENT
 ---------------------------------------------------------------------------------------------

 SEGMENT    SEG.     INFLOW   OVERLAND   STREAM    STREAM   ICALC  OUTFLOW  DIVERSION PRIORITY
    NO.    LENGTH     RATE     RUNOFF      ET       PPT.    METH.  TO SEG.  FROM SEG.    NO.

      1  2.000E+04 4.047E+01 0.000E+00 0.000E+00 0.000E+00    2        0        0        0


         STREAMBED PROPERTIES AND STREAM DIMENSIONS

 SEGMENT     BED HYD. COND.      BED THICKNESS     ELEV.-TOP OF BED     WIDTH OF STREAM     DEPTH OF STREAM    STREAM ROUGHNESS
    No.     UPPER     LOWER     UPPER     LOWER     UPPER     LOWER     UPPER     LOWER     UPPER     LOWER   CHANNEL      BANK

     1  3.500E-07 3.500E-07                                                                                 3.000E-02 4.000E-02

  EIGHT POINT CROSS-SECTION DATA FOR SEGMENTS WITH ICALC = 2
    X VALUES X VALUES START FROM LEFT SIDE LOOKING DOWNSTREAM

     SEGMENT NO.        X1        X2        X3        X4        X5        X6        X7        X8
            1      0.000E+00 2.000E+00 4.000E+00 6.000E+00 8.000E+00 1.000E+01 1.200E+01 1.400E+01

    Z VALUES ARE RELATIVE TO STREAMBED ELEVATION

     SEGMENT NO.          Z1        Z2        Z3        Z4        Z5        Z6        Z7        Z8
            1      6.000E+00 4.500E+00 3.500E+00 0.000E+00 3.000E-01 3.500E+00 4.500E+00 6.000E+00



 
 SOLVING FOR HEAD 
                                                   Max.-Head-Change                         Max.-Flux-Residual
  Residual-Control   Outer-Iter.   Inner-Iter.     Column Row Layer    Maximum-Head-Change  Column Row Layer    Maximum-Flux-Residual          L2-NORM 
          0                 1           2            50    3     1      -0.3969679271E+00      50    3    1        -0.9944864580E-01      0.1373093949E+00
          0                 2           2            50    3     1       0.3863781477E-01      55    5    1         0.3891250090E-01      0.4024750182E-01
          0                 3           2            50    3     1      -0.3443661413E-02      55    5    1        -0.2119301545E-02      0.2313503281E-02
          0                 4           2            50    3     1       0.2732839111E-03      55    5    1         0.1753695342E-03      0.1904936687E-03
          0                 5           1            50    3     1      -0.1903719541E-04      55    5    1        -0.1229130181E-04      0.1335786969E-04
          0                 6           1            50    3     1       0.1143129427E-05      55    5    1         0.7449831110E-06      0.8096010981E-06
          0                 7           1            50    3     1      -0.5776084339E-07      55    5    1        -0.3798611650E-07      0.4128101735E-07

    ------------------------------------------------
       NWT REQUIRED            7 OUTER ITERATIONS 
       AND A TOTAL OF         11 INNER ITERATIONS.
    ------------------------------------------------

 NO OUTPUT CONTROL FOR STRESS PERIOD   18   TIME STEP    1
 
 WELLS WITH REDUCED PUMPING FOR STRESS PERIOD    18 TIME STEP     1
   LAY   ROW   COL         APPL.Q          ACT.Q        GW-HEAD       CELL-BOT
     1     5    55  -0.619818E+00  -0.472672E+00   0.758434E-03   0.000000E+00
 
 
 SOLVING FOR HEAD 
                                                   Max.-Head-Change                         Max.-Flux-Residual
  Residual-Control   Outer-Iter.   Inner-Iter.     Column Row Layer    Maximum-Head-Change  Column Row Layer    Maximum-Flux-Residual          L2-NORM 
          0                 1           2            50    3     1      -0.3662200764E+00      50    3    1        -0.8273598678E-01      0.8736937953E-01
          0                 2           2            50    3     1       0.3521253443E-01      50    3    1         0.8201133243E-02      0.8658650369E-02
          0                 3           2            50    3     1      -0.3123344780E-02      50    3    1        -0.7384936067E-03      0.7839249434E-03
          0                 4           2            50    3     1       0.2475874368E-03      50    3    1         0.5915097563E-04      0.6291902163E-04
          0                 5           1            50    3     1      -0.1724472351E-04      50    3    1        -0.4158270115E-05      0.4425250207E-05
          0                 6           1            50    3     1       0.1035495645E-05      50    3    1         0.2519743167E-06      0.2681695015E-06
          0                 7           1            50    3     1      -0.5232220282E-07      50    3    1        -0.1284817425E-07      0.1367399554E-07

    ------------------------------------------------
       NWT REQUIRED            7 OUTER ITERATIONS 
       AND A TOTAL OF         11 INNER ITERATIONS.
    ------------------------------------------------

 NO OUTPUT CONTROL FOR STRESS PERIOD   18   TIME STEP    2
 
 WELLS WITH REDUCED PUMPING FOR STRESS PERIOD    18 TIME STEP     2
   LAY   ROW   COL         APPL.Q          ACT.Q        GW-HEAD       CELL-BOT
     1     5    55  -0.619959E+00  -0.472538E+00   0.758101E-03   0.000000E+00
 
 
 SOLVING FOR HEAD 
                                                   Max.-Head-Change                         Max.-Flux-Residual
  Residual-Control   Outer-Iter.   Inner-Iter.     Column Row Layer    Maximum-Head-Change  Column Row Layer    Maximum-Flux-Residual          L2-NORM 
          0                 1           2            50    3     1      -0.3410216735E+00      50    3    1        -0.6944089457E-01      0.7558356455E-01
          0                 2           2            50    3     1       0.3244681608E-01      50    3    1         0.6861903900E-02      0.7439037343E-02
          0                 3           2            50    3     1      -0.2863709171E-02      50    3    1        -0.6180663428E-03      0.6754589732E-03
          0                 4           2            50    3     1       0.2266808013E-03      50    3    1         0.4950423595E-04      0.5429733018E-04
          0                 5           1            50    3     1      -0.1578447025E-04      50    3    1        -0.3480116245E-05      0.3820704609E-05
          0                 6           1            50    3     1       0.9477961102E-06      50    3    1         0.2108806072E-06      0.2315558938E-06

    ------------------------------------------------
       NWT REQUIRED            6 OUTER ITERATIONS 
       AND A TOTAL OF         10 INNER ITERATIONS.
    ------------------------------------------------

 NO OUTPUT CONTROL FOR STRESS PERIOD   18   TIME STEP    3
 
 WELLS WITH REDUCED PUMPING FOR STRESS PERIOD    18 TIME STEP     3
   LAY   ROW   COL         APPL.Q          ACT.Q        GW-HEAD       CELL-BOT
     1     5    55  -0.620050E+00  -0.472418E+00   0.757840E-03   0.000000E+00
 
 
 SOLVING FOR HEAD 
                                                   Max.-Head-Change                         Max.-Flux-Residual
  Residual-Control   Outer-Iter.   Inner-Iter.     Column Row Layer    Maximum-Head-Change  Column Row Layer    Maximum-Flux-Residual          L2-NORM 
          0                 1           2            50    3     1      -0.3197005896E+00      50    3    1        -0.5868147547E-01      0.6647657992E-01
          0                 2           2            50    3     1       0.3010086041E-01      50    3    1         0.5783972952E-02      0.6507395317E-02
          0                 3           2            50    3     1      -0.2646591510E-02      50    3    1        -0.5210837305E-03      0.5926021556E-03
          0                 4           2            50    3     1       0.2092049578E-03      50    3    1         0.4173573496E-04      0.4772977317E-04
          0                 5           1            50    3     1      -0.1456263453E-04      50    3    1        -0.2933999045E-05      0.3361074104E-05
          0                 6           1            50    3     1       0.8743925997E-06      50    3    1         0.1777876601E-06      0.2037375789E-06

    ------------------------------------------------
       NWT REQUIRED            6 OUTER ITERATIONS 
       AND A TOTAL OF         10 INNER ITERATIONS.
    ------------------------------------------------

 NO OUTPUT CONTROL FOR STRESS PERIOD   18   TIME STEP    4
 
 WELLS WITH REDUCED PUMPING FOR STRESS PERIOD    18 TIME STEP     4
   LAY   ROW   COL         APPL.Q          ACT.Q        GW-HEAD       CELL-BOT
     1     5    55  -0.619967E+00  -0.472286E+00   0.757745E-03   0.000000E+00
 
 
 SOLVING FOR HEAD 
                                                   Max.-Head-Change                         Max.-Flux-Residual
  Residual-Control   Outer-Iter.   Inner-Iter.     Column Row Layer    Maximum-Head-Change  Column Row Layer    Maximum-Flux-Residual          L2-NORM 
          0                 1           2            50    3     1      -0.3032169801E+00      50    3    1        -0.5020584431E-01      0.5959177534E-01
          0                 2           2            50    3     1       0.2829095196E-01      50    3    1         0.4937460590E-02      0.5811554705E-02
          0                 3           2            50    3     1      -0.2478036512E-02      50    3    1        -0.4449054199E-03      0.5310158037E-03
          0                 4           2            50    3     1       0.1955723599E-03      50    3    1         0.3563380044E-04      0.4287665020E-04
          0                 5           1            50    3     1      -0.1360727969E-04      50    3    1        -0.2505039032E-05      0.3022645319E-05
          0                 6           1            50    3     1       0.8169619170E-06      50    3    1         0.1517937808E-06      0.1832832739E-06

    ------------------------------------------------
       NWT REQUIRED            6 OUTER ITERATIONS 
       AND A TOTAL OF         10 INNER ITERATIONS.
    ------------------------------------------------

 NO OUTPUT CONTROL FOR STRESS PERIOD   18   TIME STEP    5
 
 WELLS WITH REDUCED PUMPING FOR STRESS PERIOD    18 TIME STEP     5
   LAY   ROW   COL         APPL.Q          ACT.Q        GW-HEAD       CELL-BOT
     1     5    55  -0.620043E+00  -0.472142E+00   0.757467E-03   0.000000E+00
 
 
 SOLVING FOR HEAD 
                                                   Max.-Head-Change                         Max.-Flux-Residual
  Residual-Control   Outer-Iter.   Inner-Iter.     Column Row Layer    Maximum-Head-Change  Column Row Layer    Maximum-Flux-Residual          L2-NORM 
          0                 1           2            50    3     1      -0.2890266719E+00      50    3    1        -0.4318095689E-01      0.5409008027E-01
          0                 2           2            50    3     1       0.2674915172E-01      50    3    1         0.4237775966E-02      0.5263300672E-02
          0                 3           2            50    3     1      -0.2333978602E-02      50    3    1        -0.3819261262E-03      0.4828026044E-03
          0                 4           2            50    3     1       0.1838736023E-03      50    3    1         0.3058920190E-04      0.3910570732E-04
          0                 5           1            50    3     1      -0.1278538883E-04      50    3    1        -0.2150408182E-05      0.2761051107E-05
          0                 6           1            50    3     1       0.7675082436E-06      50    3    1         0.1303036906E-06      0.1675104477E-06

    ------------------------------------------------
       NWT REQUIRED            6 OUTER ITERATIONS 
       AND A TOTAL OF         10 INNER ITERATIONS.
    ------------------------------------------------

 NO OUTPUT CONTROL FOR STRESS PERIOD   18   TIME STEP    6
 
 WELLS WITH REDUCED PUMPING FOR STRESS PERIOD    18 TIME STEP     6
   LAY   ROW   COL         APPL.Q          ACT.Q        GW-HEAD       CELL-BOT
     1     5    55  -0.619964E+00  -0.471982E+00   0.757330E-03   0.000000E+00
 
 
 SOLVING FOR HEAD 
                                                   Max.-Head-Change                         Max.-Flux-Residual
  Residual-Control   Outer-Iter.   Inner-Iter.     Column Row Layer    Maximum-Head-Change  Column Row Layer    Maximum-Flux-Residual          L2-NORM 
          0                 1           2            50    3     1      -0.2783865403E+00      50    3    1        -0.3756659331E-01      0.4984676409E-01
          0                 2           2            50    3     1       0.2557974240E-01      50    3    1         0.3679073374E-02      0.4847681655E-02
          0                 3           2            50    3     1      -0.2223410490E-02      50    3    1        -0.3316322124E-03      0.4465855889E-03
          0                 4           2            50    3     1       0.1748175409E-03      50    3    1         0.2656072152E-04      0.3630396488E-04
          0                 5           1            50    3     1      -0.1214622189E-04      50    3    1        -0.1867209361E-05      0.2568338023E-05
          0                 6           1            50    3     1       0.7289799841E-06      50    3    1         0.1131417618E-06      0.1559415735E-06

    ------------------------------------------------
       NWT REQUIRED            6 OUTER ITERATIONS 
       AND A TOTAL OF         10 INNER ITERATIONS.
    ------------------------------------------------

 NO OUTPUT CONTROL FOR STRESS PERIOD   18   TIME STEP    7
 
 WELLS WITH REDUCED PUMPING FOR STRESS PERIOD    18 TIME STEP     7
   LAY   ROW   COL         APPL.Q          ACT.Q        GW-HEAD       CELL-BOT
     1     5    55  -0.620018E+00  -0.471807E+00   0.757033E-03   0.000000E+00
 
 
 SOLVING FOR HEAD 
                                                   Max.-Head-Change                         Max.-Flux-Residual
  Residual-Control   Outer-Iter.   Inner-Iter.     Column Row Layer    Maximum-Head-Change  Column Row Layer    Maximum-Flux-Residual          L2-NORM 
          0                 1           2            50    3     1      -0.2696704611E+00      50    3    1        -0.3287656781E-01      0.4641972057E-01
          0                 2           2            50    3     1       0.2461380722E-01      50    3    1         0.3212746177E-02      0.4516442994E-02
          0                 3           2            50    3     1      -0.2131265855E-02      50    3    1        -0.2896500285E-03      0.4179728009E-03
          0                 4           2            50    3     1       0.1671880661E-03      50    3    1         0.2319802187E-04      0.3412329318E-04
          0                 5           1            50    3     1      -0.1160512662E-04      50    3    1        -0.1630814216E-05      0.2420086352E-05
          0                 6           1            50    3     1       0.6962879677E-06      50    3    1         0.9881553037E-07      0.1471022465E-06

    ------------------------------------------------
       NWT REQUIRED            6 OUTER ITERATIONS 
       AND A TOTAL OF         10 INNER ITERATIONS.
    ------------------------------------------------

 NO OUTPUT CONTROL FOR STRESS PERIOD   18   TIME STEP    8
 
 WELLS WITH REDUCED PUMPING FOR STRESS PERIOD    18 TIME STEP     8
   LAY   ROW   COL         APPL.Q          ACT.Q        GW-HEAD       CELL-BOT
     1     5    55  -0.620026E+00  -0.471615E+00   0.756760E-03   0.000000E+00
 
 
 SOLVING FOR HEAD 
                                                   Max.-Head-Change                         Max.-Flux-Residual
  Residual-Control   Outer-Iter.   Inner-Iter.     Column Row Layer    Maximum-Head-Change  Column Row Layer    Maximum-Flux-Residual          L2-NORM 
          0                 1           2            50    3     1       0.1558651082E+00      50    3    1        -0.2891044947E-01      0.4362422136E-01
          0                 2           2            50    3     1       0.9413210236E-01      50    3    1        -0.2168476263E-01      0.2255679147E-01
          0                 3           2            50    3     1       0.6204116411E-01      50    3    1        -0.1263404519E-01      0.1283313119E-01
          0                 4           2            50    3     1       0.4604868469E-01      50    3    1        -0.8491122978E-02      0.8636474043E-02
          0                 5           2            50    3     1       0.3805056727E-01      50    3    1        -0.6391586418E-02      0.6499832703E-02
          0                 6           2            50    3     1       0.3405156793E-01      50    3    1        -0.5343833411E-02      0.5434419553E-02
          0                 7           2            50    3     1       0.3205206635E-01      50    3    1        -0.4819822569E-02      0.4901520494E-02
          0                 8           2            50    3     1       0.3105231564E-01      50    3    1        -0.4557825056E-02      0.4635082307E-02
          0                 9           2            50    4     1       0.4324492350E-02      50    3    1         0.9675596900E-01      0.9675943115E-01
          0                10           1            50    4     1       0.9356213763E-04      50    3    1         0.1560007634E-01      0.1560009104E-01
                                                   Max.-Head-Change                         Max.-Flux-Residual
  Residual-Control   Outer-Iter.   Inner-Iter.     Column Row Layer    Maximum-Head-Change  Column Row Layer    Maximum-Flux-Residual          L2-NORM 
          0                11           1            50    3     1       0.1228931441E-04      50    3    1         0.2081368020E-02      0.2081368104E-02
          0                12           1            50    4     1       0.2522061270E-06      50    3    1         0.1173647089E-04      0.1173652576E-04

    ------------------------------------------------
       NWT REQUIRED           12 OUTER ITERATIONS 
       AND A TOTAL OF         21 INNER ITERATIONS.
    ------------------------------------------------

 NO OUTPUT CONTROL FOR STRESS PERIOD   18   TIME STEP    9
 
 WELLS WITH REDUCED PUMPING FOR STRESS PERIOD    18 TIME STEP     9
   LAY   ROW   COL         APPL.Q          ACT.Q        GW-HEAD       CELL-BOT
     1     3    50  -0.619974E+00  -0.615829E+00   0.106626E-02   0.000000E+00
     1     5    55  -0.619974E+00  -0.471404E+00   0.756523E-03   0.000000E+00
 
 
 SOLVING FOR HEAD 
                                                   Max.-Head-Change                         Max.-Flux-Residual
  Residual-Control   Outer-Iter.   Inner-Iter.     Column Row Layer    Maximum-Head-Change  Column Row Layer    Maximum-Flux-Residual          L2-NORM 
          0                 1           2            50    2     1      -0.8419625451E-01      50    3    1        -0.2265865163E-01      0.3944135796E-01
          0                 2           2            50    2     1       0.8251842931E-02      50    3    1         0.5229318199E-01      0.5238772055E-01
          0                 3           2            50    2     1      -0.7345383175E-03      50    3    1         0.3469794532E-02      0.3482595185E-02
          0                 4           1            50    2     1       0.5831169387E-04      50    3    1        -0.2271200659E-03      0.2284792368E-03
          0                 5           1            50    2     1      -0.4062024331E-05      50    3    1         0.1856636357E-04      0.1865225989E-04
          0                 6           1            50    2     1       0.2439151835E-06      50    3    1        -0.1301123454E-05      0.1305713092E-05

    ------------------------------------------------
       NWT REQUIRED            6 OUTER ITERATIONS 
       AND A TOTAL OF          9 INNER ITERATIONS.
    ------------------------------------------------

 NO OUTPUT CONTROL FOR STRESS PERIOD   18   TIME STEP   10
 
 WELLS WITH REDUCED PUMPING FOR STRESS PERIOD    18 TIME STEP    10
   LAY   ROW   COL         APPL.Q          ACT.Q        GW-HEAD       CELL-BOT
     1     3    50  -0.620014E+00  -0.587049E+00   0.963421E-03   0.000000E+00
     1     5    55  -0.620014E+00  -0.471171E+00   0.756162E-03   0.000000E+00
 
 
 SOLVING FOR HEAD 
                                                   Max.-Head-Change                         Max.-Flux-Residual
  Residual-Control   Outer-Iter.   Inner-Iter.     Column Row Layer    Maximum-Head-Change  Column Row Layer    Maximum-Flux-Residual          L2-NORM 
          0                 1           2            50    2     1      -0.6764954555E-01      50    2    1        -0.7424298680E-02      0.3061319355E-01
          0                 2           2            50    2     1       0.6634578575E-02      50    2    1         0.7332871690E-03      0.3024120780E-02
          0                 3           2            50    2     1      -0.5918408185E-03      50    2    1        -0.6608333897E-04      0.2891263381E-03
          0                 4           1            50    2     1       0.4696420950E-04      50    2    1         0.5292580294E-05      0.2429909281E-04
          0                 5           1            50    2     1      -0.3271369004E-05      50    2    1        -0.3720676441E-06      0.1754794991E-05
          0                 6           1            50    2     1       0.1964260030E-06      50    2    1         0.2254580759E-07      0.1076585898E-06

    ------------------------------------------------
       NWT REQUIRED            6 OUTER ITERATIONS 
       AND A TOTAL OF          9 INNER ITERATIONS.
    ------------------------------------------------

 NO OUTPUT CONTROL FOR STRESS PERIOD   18   TIME STEP   11
 
 WELLS WITH REDUCED PUMPING FOR STRESS PERIOD    18 TIME STEP    11
   LAY   ROW   COL         APPL.Q          ACT.Q        GW-HEAD       CELL-BOT
     1     3    50  -0.620020E+00  -0.582322E+00   0.951925E-03   0.000000E+00
     1     5    55  -0.620020E+00  -0.470916E+00   0.755804E-03   0.000000E+00
 
 
 SOLVING FOR HEAD 
                                                   Max.-Head-Change                         Max.-Flux-Residual
  Residual-Control   Outer-Iter.   Inner-Iter.     Column Row Layer    Maximum-Head-Change  Column Row Layer    Maximum-Flux-Residual          L2-NORM 
          0                 1           2            50    1     1      -0.6336821556E-01      50    2    1        -0.5422686845E-02      0.2966084029E-01
          0                 2           2            50    1     1       0.6251218587E-02      50    2    1         0.5369692112E-03      0.2939197380E-02
          0                 3           2            50    1     1      -0.5574733529E-03      50    2    1        -0.4837806504E-04      0.2830574428E-03
          0                 4           1            50    1     1       0.4424032884E-04      50    2    1         0.3874679648E-05      0.2396034947E-04
          0                 5           1            50    1     1      -0.3080703427E-05      50    2    1        -0.2723887644E-06      0.1739515904E-05
          0                 6           1            50    1     1       0.1849262381E-06      50    2    1         0.1650567050E-07      0.1070693260E-06

    ------------------------------------------------
       NWT REQUIRED            6 OUTER ITERATIONS 
       AND A TOTAL OF          9 INNER ITERATIONS.
    ------------------------------------------------

 NO OUTPUT CONTROL FOR STRESS PERIOD   18   TIME STEP   12
 
 WELLS WITH REDUCED PUMPING FOR STRESS PERIOD    18 TIME STEP    12
   LAY   ROW   COL         APPL.Q          ACT.Q        GW-HEAD       CELL-BOT
     1     3    50  -0.619976E+00  -0.578482E+00   0.943145E-03   0.000000E+00
     1     5    55  -0.619976E+00  -0.470634E+00   0.755464E-03   0.000000E+00
 
 
 SOLVING FOR HEAD 
                                                   Max.-Head-Change                         Max.-Flux-Residual
  Residual-Control   Outer-Iter.   Inner-Iter.     Column Row Layer    Maximum-Head-Change  Column Row Layer    Maximum-Flux-Residual          L2-NORM 
          0                 1           2            50    1     1      -0.5964471455E-01      50    1    1        -0.4615032798E-02      0.2903166123E-01
          0                 2           2            50    1     1       0.5880369138E-02      50    1    1         0.4594383230E-03      0.2883142724E-02
          0                 3           2            50    1     1      -0.5243383072E-03      50    1    1        -0.4136972327E-04      0.2792387115E-03
          0                 4           1            50    1     1       0.4160750315E-04      50    1    1         0.3313554146E-05      0.2379554271E-04
          0                 5           1            50    1     1      -0.2896878729E-05      50    1    1        -0.2327979399E-06      0.1736825793E-05
          0                 6           1            50    1     1       0.1738695581E-06      50    1    1         0.1409882183E-07      0.1072878558E-06

    ------------------------------------------------
       NWT REQUIRED            6 OUTER ITERATIONS 
       AND A TOTAL OF          9 INNER ITERATIONS.
    ------------------------------------------------

 NO OUTPUT CONTROL FOR STRESS PERIOD   18   TIME STEP   13
 
 WELLS WITH REDUCED PUMPING FOR STRESS PERIOD    18 TIME STEP    13
   LAY   ROW   COL         APPL.Q          ACT.Q        GW-HEAD       CELL-BOT
     1     3    50  -0.619981E+00  -0.575199E+00   0.935822E-03   0.000000E+00
     1     5    55  -0.619981E+00  -0.470324E+00   0.755034E-03   0.000000E+00
 
 
 SOLVING FOR HEAD 
                                                   Max.-Head-Change                         Max.-Flux-Residual
  Residual-Control   Outer-Iter.   Inner-Iter.     Column Row Layer    Maximum-Head-Change  Column Row Layer    Maximum-Flux-Residual          L2-NORM 
          0                 1           2            50    1     1      -0.5538093194E-01      50    1    1        -0.3949190273E-02      0.2856521520E-01
          0                 2           2            50    1     1       0.5457500331E-02      50    1    1         0.3930168061E-03      0.2838801453E-02
          0                 3           2            50    1     1      -0.4865290786E-03      50    1    1        -0.3539015112E-04      0.2763530979E-03
          0                 4           1            50    1     1       0.3860293572E-04      50    1    1         0.2834603269E-05      0.2370868146E-04
          0                 5           1            50    1     1      -0.2687066622E-05      50    1    1        -0.1990999622E-06      0.1740199027E-05
          0                 6           1            50    1     1       0.1612501129E-06      50    1    1         0.1205565542E-07      0.1079174481E-06

    ------------------------------------------------
       NWT REQUIRED            6 OUTER ITERATIONS 
       AND A TOTAL OF          9 INNER ITERATIONS.
    ------------------------------------------------

 NO OUTPUT CONTROL FOR STRESS PERIOD   18   TIME STEP   14
 
 WELLS WITH REDUCED PUMPING FOR STRESS PERIOD    18 TIME STEP    14
   LAY   ROW   COL         APPL.Q          ACT.Q        GW-HEAD       CELL-BOT
     1     3    50  -0.620013E+00  -0.572285E+00   0.929460E-03   0.000000E+00
     1     5    55  -0.620013E+00  -0.469983E+00   0.754532E-03   0.000000E+00
 
 
 SOLVING FOR HEAD 
                                                   Max.-Head-Change                         Max.-Flux-Residual
  Residual-Control   Outer-Iter.   Inner-Iter.     Column Row Layer    Maximum-Head-Change  Column Row Layer    Maximum-Flux-Residual          L2-NORM 
          0                 1           2            50    1     1      -0.5100381284E-01      50    1    1        -0.3333670391E-02      0.2821663844E-01
          0                 2           2            50    1     1       0.5023933809E-02      50    1    1         0.3317555645E-03      0.2803935289E-02
          0                 3           2            50    1     1      -0.4477358550E-03      50    1    1        -0.2987379603E-04      0.2742528407E-03
          0                 4           1            50    1     1       0.3551920271E-04      50    1    1         0.2392765767E-05      0.2368433235E-04
          0                 5           1            50    1     1      -0.2471633233E-05      50    1    1        -0.1680103237E-06      0.1748226214E-05
          0                 6           1            50    1     1       0.1482909195E-06      71    4    1        -0.1070245936E-07      0.1088609333E-06

    ------------------------------------------------
       NWT REQUIRED            6 OUTER ITERATIONS 
       AND A TOTAL OF          9 INNER ITERATIONS.
    ------------------------------------------------

 NO OUTPUT CONTROL FOR STRESS PERIOD   18   TIME STEP   15
 
 WELLS WITH REDUCED PUMPING FOR STRESS PERIOD    18 TIME STEP    15
   LAY   ROW   COL         APPL.Q          ACT.Q        GW-HEAD       CELL-BOT
     1     3    50  -0.620013E+00  -0.569628E+00   0.923859E-03   0.000000E+00
     1     5    55  -0.620013E+00  -0.469606E+00   0.754016E-03   0.000000E+00
 
 
 SOLVING FOR HEAD 
                                                   Max.-Head-Change                         Max.-Flux-Residual
  Residual-Control   Outer-Iter.   Inner-Iter.     Column Row Layer    Maximum-Head-Change  Column Row Layer    Maximum-Flux-Residual          L2-NORM 
          0                 1           2            50    1     1      -0.4677799437E-01      50    1    1        -0.2791195560E-02      0.2795912719E-01
          0                 2           2            50    1     1       0.4605228252E-02      50    1    1         0.2778190191E-03      0.2810258825E-02
          0                 3           2            50    1     1      -0.4102397467E-03      50    1    1        -0.2501648439E-04      0.2760281775E-03
          0                 4           1            50    1     1       0.3253721022E-04      71    4    1        -0.2118685934E-05      0.2390943064E-04
          0                 5           1            50    1     1      -0.2263349577E-05      71    4    1         0.1723684555E-06      0.1769146501E-05
          0                 6           1            50    1     1       0.1357667962E-06      71    4    1        -0.1118106496E-07      0.1103791331E-06

    ------------------------------------------------
       NWT REQUIRED            6 OUTER ITERATIONS 
       AND A TOTAL OF          9 INNER ITERATIONS.
    ------------------------------------------------

 NO OUTPUT CONTROL FOR STRESS PERIOD   18   TIME STEP   16
 
 WELLS WITH REDUCED PUMPING FOR STRESS PERIOD    18 TIME STEP    16
   LAY   ROW   COL         APPL.Q          ACT.Q        GW-HEAD       CELL-BOT
     1     3    50  -0.620013E+00  -0.567158E+00   0.918763E-03   0.000000E+00
     1     5    55  -0.620013E+00  -0.469190E+00   0.753446E-03   0.000000E+00
 
 
 SOLVING FOR HEAD 
                                                   Max.-Head-Change                         Max.-Flux-Residual
  Residual-Control   Outer-Iter.   Inner-Iter.     Column Row Layer    Maximum-Head-Change  Column Row Layer    Maximum-Flux-Residual          L2-NORM 
          0                 1           2            50    1     1      -0.4285736836E-01      50    1    1        -0.2327329597E-02      0.2734506093E-01
          0                 2           2            50    1     1       0.4216221901E-02      50    1    1         0.2317133431E-03      0.2793995484E-02
          0                 3           2            50    1     1      -0.3753646498E-03      50    1    1        -0.2086425051E-04      0.2752654175E-03
          0                 4           1            50    1     1       0.2976181905E-04      71    4    1        -0.2172471051E-05      0.2385643513E-04
          0                 5           1            50    1     1      -0.2069589948E-05      71    4    1         0.1783174195E-06      0.1765902232E-05
          0                 6           1            50    1     1       0.1241242894E-06      71    4    1        -0.1164932861E-07      0.1102349044E-06

    ------------------------------------------------
       NWT REQUIRED            6 OUTER ITERATIONS 
       AND A TOTAL OF          9 INNER ITERATIONS.
    ------------------------------------------------

 NO OUTPUT CONTROL FOR STRESS PERIOD   18   TIME STEP   17
 
 WELLS WITH REDUCED PUMPING FOR STRESS PERIOD    18 TIME STEP    17
   LAY   ROW   COL         APPL.Q          ACT.Q        GW-HEAD       CELL-BOT
     1     3    50  -0.619992E+00  -0.564827E+00   0.914083E-03   0.000000E+00
     1     5    55  -0.619992E+00  -0.468729E+00   0.752837E-03   0.000000E+00
 
 
 SOLVING FOR HEAD 
                                                   Max.-Head-Change                         Max.-Flux-Residual
  Residual-Control   Outer-Iter.   Inner-Iter.     Column Row Layer    Maximum-Head-Change  Column Row Layer    Maximum-Flux-Residual          L2-NORM 
          0                 1           2            71    7     1      -0.4028108123E-01      50    1    1        -0.1938553597E-02      0.2597541197E-01
          0                 2           2            51    1     1       0.3889332638E-02      50    1    1         0.1930691880E-03      0.2649244196E-02
          0                 3           2            51    1     1      -0.3457062485E-03      77    4    1         0.2256161348E-04      0.2628178588E-03
          0                 4           1            51    1     1       0.2740833711E-04      77    4    1        -0.2260452346E-05      0.2294933193E-04
          0                 5           1            51    1     1      -0.1907426449E-05      71    4    1         0.1838666979E-06      0.1707992563E-05
          0                 6           1            51    1     1       0.1144638366E-06      71    4    1        -0.1209748746E-07      0.1070136994E-06

    ------------------------------------------------
       NWT REQUIRED            6 OUTER ITERATIONS 
       AND A TOTAL OF          9 INNER ITERATIONS.
    ------------------------------------------------

 NO OUTPUT CONTROL FOR STRESS PERIOD   18   TIME STEP   18
 
 WELLS WITH REDUCED PUMPING FOR STRESS PERIOD    18 TIME STEP    18
   LAY   ROW   COL         APPL.Q          ACT.Q        GW-HEAD       CELL-BOT
     1     3    50  -0.619989E+00  -0.562634E+00   0.909724E-03   0.000000E+00
     1     5    55  -0.619989E+00  -0.468219E+00   0.752143E-03   0.000000E+00
 
 
 SOLVING FOR HEAD 
                                                   Max.-Head-Change                         Max.-Flux-Residual
  Residual-Control   Outer-Iter.   Inner-Iter.     Column Row Layer    Maximum-Head-Change  Column Row Layer    Maximum-Flux-Residual          L2-NORM 
          0                 1           2            69    1     1      -0.4367437930E-01      71    1    1        -0.1669294336E-02      0.2508668327E-01
          0                 2           2            69    1     1       0.3914191897E-02      73    4    1        -0.1676625160E-03      0.2558095833E-02
          0                 3           2            51    1     1      -0.3416375001E-03      73    4    1         0.2390558544E-04      0.2551354619E-03
          0                 4           1            51    1     1       0.2707374780E-04      71    4    1        -0.2428210875E-05      0.2241448506E-04
          0                 5           1            51    1     1      -0.1883300269E-05      71    4    1         0.1960277061E-06      0.1675624824E-05
          0                 6           1            51    1     1       0.1129900028E-06      71    4    1        -0.1273437533E-07      0.1053232284E-06

    ------------------------------------------------
       NWT REQUIRED            6 OUTER ITERATIONS 
       AND A TOTAL OF          9 INNER ITERATIONS.
    ------------------------------------------------

 NO OUTPUT CONTROL FOR STRESS PERIOD   18   TIME STEP   19
 
 WELLS WITH REDUCED PUMPING FOR STRESS PERIOD    18 TIME STEP    19
   LAY   ROW   COL         APPL.Q          ACT.Q        GW-HEAD       CELL-BOT
     1     3    50  -0.619987E+00  -0.560537E+00   0.905619E-03   0.000000E+00
     1     5    55  -0.619987E+00  -0.467653E+00   0.751373E-03   0.000000E+00
 
 
 SOLVING FOR HEAD 
                                                   Max.-Head-Change                         Max.-Flux-Residual
  Residual-Control   Outer-Iter.   Inner-Iter.     Column Row Layer    Maximum-Head-Change  Column Row Layer    Maximum-Flux-Residual          L2-NORM 
          0                 1           2            67    1     1      -0.4613040897E-01      98    4    1         0.2613614336E-02      0.2692696077E-01
          0                 2           2            67    1     1       0.4127582853E-02     100    4    1        -0.2373255716E-03      0.2704931512E-02
          0                 3           2            67    1     1      -0.3402332665E-03      70    4    1         0.2638708902E-04      0.2629930645E-03
          0                 4           1            51    1     1       0.2652541206E-04      70    4    1        -0.2603789341E-05      0.2272113203E-04
          0                 5           1            51    1     1      -0.1844582087E-05      70    4    1         0.2044625074E-06      0.1682825074E-05
          0                 6           1            51    1     1       0.1106542189E-06      70    4    1        -0.1312118592E-07      0.1053024502E-06

    ------------------------------------------------
       NWT REQUIRED            6 OUTER ITERATIONS 
       AND A TOTAL OF          9 INNER ITERATIONS.
    ------------------------------------------------

 NO OUTPUT CONTROL FOR STRESS PERIOD   18   TIME STEP   20
 
 WELLS WITH REDUCED PUMPING FOR STRESS PERIOD    18 TIME STEP    20
   LAY   ROW   COL         APPL.Q          ACT.Q        GW-HEAD       CELL-BOT
     1     3    50  -0.620007E+00  -0.558479E+00   0.901608E-03   0.000000E+00
     1     5    55  -0.620007E+00  -0.467024E+00   0.750495E-03   0.000000E+00
 
 
 SOLVING FOR HEAD 
                                                   Max.-Head-Change                         Max.-Flux-Residual
  Residual-Control   Outer-Iter.   Inner-Iter.     Column Row Layer    Maximum-Head-Change  Column Row Layer    Maximum-Flux-Residual          L2-NORM 
          0                 1           2            66    1     1      -0.4719356426E-01      21    4    1         0.2044055306E-02      0.2334875963E-01
          0                 2           2            66    1     1       0.4241372986E-02      81    4    1        -0.2544603888E-03      0.2438016297E-02
          0                 3           2            66    1     1      -0.3509690812E-03      81    4    1         0.2665293744E-04      0.2426057053E-03
          0                 4           1            66    1     1       0.2640027364E-04      67    4    1        -0.2524221960E-05      0.2118795463E-04
          0                 5           1            51    1     1      -0.1795789428E-05      67    4    1         0.1963520351E-06      0.1576189459E-05
          0                 6           1            51    1     1       0.1077042288E-06      67    4    1        -0.1252524839E-07      0.9876611845E-07

    ------------------------------------------------
       NWT REQUIRED            6 OUTER ITERATIONS 
       AND A TOTAL OF          9 INNER ITERATIONS.
    ------------------------------------------------

 NO OUTPUT CONTROL FOR STRESS PERIOD   18   TIME STEP   21
 
 WELLS WITH REDUCED PUMPING FOR STRESS PERIOD    18 TIME STEP    21
   LAY   ROW   COL         APPL.Q          ACT.Q        GW-HEAD       CELL-BOT
     1     3    50  -0.620000E+00  -0.556461E+00   0.897775E-03   0.000000E+00
     1     5    55  -0.620000E+00  -0.466325E+00   0.749550E-03   0.000000E+00
 
 
 SOLVING FOR HEAD 
                                                   Max.-Head-Change                         Max.-Flux-Residual
  Residual-Control   Outer-Iter.   Inner-Iter.     Column Row Layer    Maximum-Head-Change  Column Row Layer    Maximum-Flux-Residual          L2-NORM 
          0                 1           2            70    7     1      -0.5046099519E-01      27    4    1         0.2112160454E-02      0.2125121711E-01
          0                 2           2            70    7     1       0.4431105267E-02      76    4    1        -0.2508985794E-03      0.2240729448E-02
          0                 3           2            69    7     1      -0.3580695905E-03      76    4    1         0.2837662159E-04      0.2252111879E-03
          0                 4           1            65    1     1       0.2667613356E-04      76    4    1        -0.2587669371E-05      0.1978758915E-04
          0                 5           1            65    1     1      -0.1788938715E-05      76    4    1         0.1959134970E-06      0.1475781347E-05
          0                 6           1            64    1     1       0.1053231027E-06      74    4    1        -0.1246077375E-07      0.9256583746E-07

    ------------------------------------------------
       NWT REQUIRED            6 OUTER ITERATIONS 
       AND A TOTAL OF          9 INNER ITERATIONS.
    ------------------------------------------------

 NO OUTPUT CONTROL FOR STRESS PERIOD   18   TIME STEP   22
 
 WELLS WITH REDUCED PUMPING FOR STRESS PERIOD    18 TIME STEP    22
   LAY   ROW   COL         APPL.Q          ACT.Q        GW-HEAD       CELL-BOT
     1     3    50  -0.619996E+00  -0.554477E+00   0.894050E-03   0.000000E+00
     1     5    55  -0.619996E+00  -0.465548E+00   0.748498E-03   0.000000E+00
 
 
 SOLVING FOR HEAD 
                                                   Max.-Head-Change                         Max.-Flux-Residual
  Residual-Control   Outer-Iter.   Inner-Iter.     Column Row Layer    Maximum-Head-Change  Column Row Layer    Maximum-Flux-Residual          L2-NORM 
          0                 1           2            68    7     1      -0.5363605707E-01      31    4    1         0.1933428949E-02      0.1956672267E-01
          0                 2           2            68    7     1       0.4699921117E-02      73    4    1        -0.2589884981E-03      0.2071486465E-02
          0                 3           2            68    7     1      -0.3786337476E-03      72    4    1         0.2959916246E-04      0.2093895815E-03
          0                 4           1            68    1     1       0.2775456783E-04      72    4    1        -0.2756619969E-05      0.1847824695E-04
          0                 5           1            68    1     1      -0.1819980490E-05      72    4    1         0.2102267551E-06      0.1381114682E-05
          0                 6           1            68    1     1       0.1049842916E-06      72    4    1        -0.1326123211E-07      0.8674834078E-07

    ------------------------------------------------
       NWT REQUIRED            6 OUTER ITERATIONS 
       AND A TOTAL OF          9 INNER ITERATIONS.
    ------------------------------------------------

 NO OUTPUT CONTROL FOR STRESS PERIOD   18   TIME STEP   23
 
 WELLS WITH REDUCED PUMPING FOR STRESS PERIOD    18 TIME STEP    23
   LAY   ROW   COL         APPL.Q          ACT.Q        GW-HEAD       CELL-BOT
     1     3    50  -0.619992E+00  -0.552518E+00   0.890417E-03   0.000000E+00
     1     5    55  -0.619992E+00  -0.464685E+00   0.747330E-03   0.000000E+00
 
 
 SOLVING FOR HEAD 
                                                   Max.-Head-Change                         Max.-Flux-Residual
  Residual-Control   Outer-Iter.   Inner-Iter.     Column Row Layer    Maximum-Head-Change  Column Row Layer    Maximum-Flux-Residual          L2-NORM 
          0                 1           2            66    1     1      -0.5518636233E-01      35    4    1         0.2000605945E-02      0.1807661866E-01
          0                 2           2            66    1     1       0.4827656262E-02      70    4    1        -0.2558581707E-03      0.1915337919E-02
          0                 3           2            66    1     1      -0.3887461674E-03      69    4    1         0.2974122789E-04      0.1946343033E-03
          0                 4           1            66    1     1       0.2851143063E-04      69    4    1        -0.2748645864E-05      0.1726192600E-04
          0                 5           1            66    1     1      -0.1874339638E-05      69    4    1         0.2059251489E-06      0.1293336600E-05
          0                 6           1            66    1     1       0.1084439807E-06      69    4    1        -0.1286352713E-07      0.8137562473E-07

    ------------------------------------------------
       NWT REQUIRED            6 OUTER ITERATIONS 
       AND A TOTAL OF          9 INNER ITERATIONS.
    ------------------------------------------------

 NO OUTPUT CONTROL FOR STRESS PERIOD   18   TIME STEP   24
 
 WELLS WITH REDUCED PUMPING FOR STRESS PERIOD    18 TIME STEP    24
   LAY   ROW   COL         APPL.Q          ACT.Q        GW-HEAD       CELL-BOT
     1     3    50  -0.619997E+00  -0.550583E+00   0.886853E-03   0.000000E+00
     1     5    55  -0.619997E+00  -0.463733E+00   0.746035E-03   0.000000E+00
 
 
 SOLVING FOR HEAD 
                                                   Max.-Head-Change                         Max.-Flux-Residual
  Residual-Control   Outer-Iter.   Inner-Iter.     Column Row Layer    Maximum-Head-Change  Column Row Layer    Maximum-Flux-Residual          L2-NORM 
          0                 1           2            64    1     1      -0.5455762334E-01      38    4    1         0.2111557826E-02      0.1682759610E-01
          0                 2           2            64    1     1       0.4787578192E-02      67    4    1        -0.2621456767E-03      0.1777906054E-02
          0                 3           2            64    1     1      -0.3867851932E-03      67    4    1         0.2951503219E-04      0.1814246806E-03
          0                 4           1            64    1     1       0.2845718480E-04      67    4    1        -0.2665709868E-05      0.1617048363E-04
          0                 5           1            64    1     1      -0.1879053240E-05      67    4    1         0.1959987355E-06      0.1214643528E-05
          0                 6           1            64    1     1       0.1092066603E-06      66    4    1        -0.1230651847E-07      0.7658969360E-07

    ------------------------------------------------
       NWT REQUIRED            6 OUTER ITERATIONS 
       AND A TOTAL OF          9 INNER ITERATIONS.
    ------------------------------------------------

 NO OUTPUT CONTROL FOR STRESS PERIOD   18   TIME STEP   25
 
 WELLS WITH REDUCED PUMPING FOR STRESS PERIOD    18 TIME STEP    25
   LAY   ROW   COL         APPL.Q          ACT.Q        GW-HEAD       CELL-BOT
     1     3    50  -0.620007E+00  -0.548716E+00   0.883447E-03   0.000000E+00
     1     5    55  -0.620007E+00  -0.462733E+00   0.744672E-03   0.000000E+00
 
 
 SOLVING FOR HEAD 
                                                   Max.-Head-Change                         Max.-Flux-Residual
  Residual-Control   Outer-Iter.   Inner-Iter.     Column Row Layer    Maximum-Head-Change  Column Row Layer    Maximum-Flux-Residual          L2-NORM 
          0                 1           3            71    1     1      -0.5156858696E-01      41    4    1         0.1926499857E-02      0.1561995702E-01
          0                 2           2            62    1     1       0.4478795590E-02      64    4    1        -0.2601824636E-03      0.1643773820E-02
          0                 3           2            62    1     1      -0.3631711779E-03      64    4    1         0.2818426110E-04      0.1689847927E-03
          0                 4           1            63    1     1       0.2690540280E-04      64    4    1        -0.2490444457E-05      0.1517969487E-04
          0                 5           1            63    1     1      -0.1802222402E-05      64    4    1         0.1839320367E-06      0.1144399411E-05
          0                 6           1            63    1     1       0.1060082747E-06      64    4    1        -0.1142744477E-07      0.7236466645E-07

    ------------------------------------------------
       NWT REQUIRED            6 OUTER ITERATIONS 
       AND A TOTAL OF         10 INNER ITERATIONS.
    ------------------------------------------------

 NO OUTPUT CONTROL FOR STRESS PERIOD   18   TIME STEP   26
 
 WELLS WITH REDUCED PUMPING FOR STRESS PERIOD    18 TIME STEP    26
   LAY   ROW   COL         APPL.Q          ACT.Q        GW-HEAD       CELL-BOT
     1     3    50  -0.620004E+00  -0.547130E+00   0.880596E-03   0.000000E+00
     1     5    55  -0.620004E+00  -0.461890E+00   0.743537E-03   0.000000E+00
 
 
 SOLVING FOR HEAD 
                                                   Max.-Head-Change                         Max.-Flux-Residual
  Residual-Control   Outer-Iter.   Inner-Iter.     Column Row Layer    Maximum-Head-Change  Column Row Layer    Maximum-Flux-Residual          L2-NORM 
          0                 1           3            71    1     1      -0.5596419616E-01      43    4    1         0.2107291991E-02      0.1485939240E-01
          0                 2           2            71    7     1       0.4683320956E-02      62    4    1        -0.2463043464E-03      0.1543604275E-02
          0                 3           2            70    7     1      -0.3601263848E-03      62    4    1         0.2545067972E-04      0.1590375200E-03
          0                 4           1            70    1     1       0.2531031010E-04      62    4    1        -0.2185455509E-05      0.1438053898E-04
          0                 5           1            61    1     1      -0.1659472051E-05      62    4    1         0.1583242479E-06      0.1087806029E-05
          0                 6           1            61    1     1       0.9851044599E-07      72    4    1        -0.1025286167E-07      0.6900461149E-07

    ------------------------------------------------
       NWT REQUIRED            6 OUTER ITERATIONS 
       AND A TOTAL OF         10 INNER ITERATIONS.
    ------------------------------------------------

 NO OUTPUT CONTROL FOR STRESS PERIOD   18   TIME STEP   27
 
 WELLS WITH REDUCED PUMPING FOR STRESS PERIOD    18 TIME STEP    27
   LAY   ROW   COL         APPL.Q          ACT.Q        GW-HEAD       CELL-BOT
     1     3    50  -0.620001E+00  -0.546430E+00   0.879350E-03   0.000000E+00
     1     5    55  -0.620001E+00  -0.461836E+00   0.743467E-03   0.000000E+00
 
 
 SOLVING FOR HEAD 
                                                   Max.-Head-Change                         Max.-Flux-Residual
  Residual-Control   Outer-Iter.   Inner-Iter.     Column Row Layer    Maximum-Head-Change  Column Row Layer    Maximum-Flux-Residual          L2-NORM 
          0                 1           3            71    1     1      -0.6078187358E-01      45    4    1         0.1926789285E-02      0.1379656927E-01
          0                 2           2            71    7     1       0.5064008029E-02      60    4    1        -0.2161825810E-03      0.1431503247E-02
          0                 3           2            71    7     1      -0.3865817522E-03      60    4    1         0.2103209376E-04      0.1491804848E-03
          0                 4           1            70    1     1       0.2691217716E-04      71    4    1        -0.1820173992E-05      0.1364691392E-04
          0                 5           1            69    7     1      -0.1673821010E-05      72    4    1         0.1543253489E-06      0.1037485759E-05
          0                 6           1            68    1     1       0.9351754158E-07      72    4    1        -0.1038185715E-07      0.6608847059E-07

    ------------------------------------------------
       NWT REQUIRED            6 OUTER ITERATIONS 
       AND A TOTAL OF         10 INNER ITERATIONS.
    ------------------------------------------------

 NO OUTPUT CONTROL FOR STRESS PERIOD   18   TIME STEP   28
 
 WELLS WITH REDUCED PUMPING FOR STRESS PERIOD    18 TIME STEP    28
   LAY   ROW   COL         APPL.Q          ACT.Q        GW-HEAD       CELL-BOT
     1     3    50  -0.620001E+00  -0.545330E+00   0.877392E-03   0.000000E+00
     1     5    55  -0.620001E+00  -0.461225E+00   0.742643E-03   0.000000E+00
 
 
 SOLVING FOR HEAD 
                                                   Max.-Head-Change                         Max.-Flux-Residual
  Residual-Control   Outer-Iter.   Inner-Iter.     Column Row Layer    Maximum-Head-Change  Column Row Layer    Maximum-Flux-Residual          L2-NORM 
          0                 1           3            71    1     1      -0.6596072049E-01      58    4    1         0.2143317547E-02      0.1326886631E-01
          0                 2           2            71    7     1       0.5473592160E-02      58    4    1        -0.2050489244E-03      0.1357827777E-02
          0                 3           2            71    7     1      -0.4151729972E-03      58    4    1         0.1743041601E-04      0.1421827828E-03
          0                 4           1            70    7     1       0.2864803883E-04      71    4    1        -0.1820627022E-05      0.1312622769E-04
          0                 5           1            69    7     1      -0.1760744858E-05      72    4    1         0.1551488342E-06      0.1001169233E-05
          0                 6           1            68    1     1       0.9762344351E-07      72    4    1        -0.1047413001E-07      0.6399340228E-07

    ------------------------------------------------
       NWT REQUIRED            6 OUTER ITERATIONS 
       AND A TOTAL OF         10 INNER ITERATIONS.
    ------------------------------------------------

 NO OUTPUT CONTROL FOR STRESS PERIOD   18   TIME STEP   29
 
 WELLS WITH REDUCED PUMPING FOR STRESS PERIOD    18 TIME STEP    29
   LAY   ROW   COL         APPL.Q          ACT.Q        GW-HEAD       CELL-BOT
     1     3    50  -0.619996E+00  -0.544223E+00   0.875442E-03   0.000000E+00
     1     5    55  -0.619996E+00  -0.460476E+00   0.741640E-03   0.000000E+00
 
 
 SOLVING FOR HEAD 
                                                   Max.-Head-Change                         Max.-Flux-Residual
  Residual-Control   Outer-Iter.   Inner-Iter.     Column Row Layer    Maximum-Head-Change  Column Row Layer    Maximum-Flux-Residual          L2-NORM 
          0                 1           3            71    1     1      -0.7149687796E-01      49    4    1         0.1948914988E-02      0.1282757531E-01
          0                 2           2            71    7     1       0.5911150241E-02      49    4    1        -0.1578373851E-03      0.1301504887E-02
          0                 3           2            71    7     1      -0.4456273363E-03      71    4    1         0.1587923634E-04      0.1372757990E-03
          0                 4           1            70    7     1       0.3047960862E-04      71    4    1        -0.1816582422E-05      0.1279595081E-04
          0                 5           1            69    1     1      -0.1845447956E-05      72    4    1         0.1555785030E-06      0.9783600327E-06
          0                 6           1            68    1     1       0.1017606128E-06      72    4    1        -0.1053966336E-07      0.6274908623E-07

    ------------------------------------------------
       NWT REQUIRED            6 OUTER ITERATIONS 
       AND A TOTAL OF         10 INNER ITERATIONS.
    ------------------------------------------------

 NO OUTPUT CONTROL FOR STRESS PERIOD   18   TIME STEP   30
 
 WELLS WITH REDUCED PUMPING FOR STRESS PERIOD    18 TIME STEP    30
   LAY   ROW   COL         APPL.Q          ACT.Q        GW-HEAD       CELL-BOT
     1     3    50  -0.619997E+00  -0.543708E+00   0.874534E-03   0.000000E+00
     1     5    55  -0.619997E+00  -0.460171E+00   0.741229E-03   0.000000E+00
 



 STREAM LISTING     PERIOD     18   STEP       30

 LAYER ROW COL. STREAM  RCH.   FLOW INTO    STREAM     FLOW OUT OF   OVRLND.    DIRECT     STREAM      STREAM      STREAM     STREAM  STREAMBED   FLOW TO   CHNG. UNSAT. 
                SEG.NO.  NO.   STRM. RCH.    LOSS       STRM. RCH.   RUNOFF     PRECIP       ET         HEAD        DEPTH      WIDTH  CONDCTNC.   WAT. TAB.

   1    4    1     1     1    4.0470E+01  9.9917E-03   4.0460E+01  0.000E+00  0.000E+00  0.000E+00  1.44347E+02  4.497E+00  9.986E+00  2.000E-03  8.696E-03  1.296E-03
   1    4    2     1     2    4.0460E+01  9.9895E-03   4.0450E+01  0.000E+00  0.000E+00  0.000E+00  1.44046E+02  4.496E+00  9.984E+00  1.999E-03  8.695E-03  1.295E-03
   1    4    3     1     3    4.0450E+01  9.9873E-03   4.0440E+01  0.000E+00  0.000E+00  0.000E+00  1.43746E+02  4.496E+00  9.983E+00  1.999E-03  8.693E-03  1.294E-03
   1    4    4     1     4    4.0440E+01  9.9851E-03   4.0430E+01  0.000E+00  0.000E+00  0.000E+00  1.43445E+02  4.495E+00  9.981E+00  1.999E-03  8.692E-03  1.293E-03
   1    4    5     1     5    4.0430E+01  9.9829E-03   4.0420E+01  0.000E+00  0.000E+00  0.000E+00  1.43145E+02  4.495E+00  9.979E+00  1.999E-03  8.691E-03  1.292E-03
   1    4    6     1     6    4.0420E+01  9.9807E-03   4.0410E+01  0.000E+00  0.000E+00  0.000E+00  1.42844E+02  4.494E+00  9.978E+00  1.998E-03  8.689E-03  1.292E-03
   1    4    7     1     7    4.0410E+01  9.9785E-03   4.0400E+01  0.000E+00  0.000E+00  0.000E+00  1.42544E+02  4.494E+00  9.976E+00  1.998E-03  8.687E-03  1.292E-03
   1    4    8     1     8    4.0400E+01  9.9763E-03   4.0390E+01  0.000E+00  0.000E+00  0.000E+00  1.42244E+02  4.494E+00  9.974E+00  1.998E-03  8.685E-03  1.291E-03
   1    4    9     1     9    4.0390E+01  9.9741E-03   4.0380E+01  0.000E+00  0.000E+00  0.000E+00  1.41943E+02  4.493E+00  9.972E+00  1.998E-03  8.683E-03  1.291E-03
   1    4   10     1    10    4.0380E+01  9.9719E-03   4.0370E+01  0.000E+00  0.000E+00  0.000E+00  1.41643E+02  4.493E+00  9.971E+00  1.997E-03  8.680E-03  1.292E-03
   1    4   11     1    11    4.0370E+01  9.9697E-03   4.0360E+01  0.000E+00  0.000E+00  0.000E+00  1.41342E+02  4.492E+00  9.969E+00  1.997E-03  8.678E-03  1.292E-03
   1    4   12     1    12    4.0360E+01  9.9675E-03   4.0350E+01  0.000E+00  0.000E+00  0.000E+00  1.41042E+02  4.492E+00  9.967E+00  1.997E-03  8.675E-03  1.292E-03
   1    4   13     1    13    4.0350E+01  9.9653E-03   4.0340E+01  0.000E+00  0.000E+00  0.000E+00  1.40741E+02  4.491E+00  9.966E+00  1.997E-03  8.672E-03  1.293E-03
   1    4   14     1    14    4.0340E+01  9.9631E-03   4.0330E+01  0.000E+00  0.000E+00  0.000E+00  1.40441E+02  4.491E+00  9.964E+00  1.996E-03  8.670E-03  1.294E-03
   1    4   15     1    15    4.0330E+01  9.9609E-03   4.0320E+01  0.000E+00  0.000E+00  0.000E+00  1.40141E+02  4.491E+00  9.962E+00  1.996E-03  8.667E-03  1.294E-03
   1    4   16     1    16    4.0320E+01  9.9587E-03   4.0310E+01  0.000E+00  0.000E+00  0.000E+00  1.39840E+02  4.490E+00  9.960E+00  1.996E-03  8.664E-03  1.295E-03
   1    4   17     1    17    4.0310E+01  9.9565E-03   4.0300E+01  0.000E+00  0.000E+00  0.000E+00  1.39540E+02  4.490E+00  9.959E+00  1.995E-03  8.661E-03  1.296E-03
   1    4   18     1    18    4.0300E+01  9.9543E-03   4.0290E+01  0.000E+00  0.000E+00  0.000E+00  1.39239E+02  4.489E+00  9.957E+00  1.995E-03  8.657E-03  1.297E-03
   1    4   19     1    19    4.0290E+01  9.9522E-03   4.0281E+01  0.000E+00  0.000E+00  0.000E+00  1.38939E+02  4.489E+00  9.955E+00  1.995E-03  8.654E-03  1.298E-03
   1    4   20     1    20    4.0281E+01  9.9500E-03   4.0271E+01  0.000E+00  0.000E+00  0.000E+00  1.38638E+02  4.488E+00  9.954E+00  1.995E-03  8.651E-03  1.299E-03
   1    4   21     1    21    4.0271E+01  9.9478E-03   4.0261E+01  0.000E+00  0.000E+00  0.000E+00  1.38338E+02  4.488E+00  9.952E+00  1.994E-03  8.648E-03  1.300E-03
   1    4   22     1    22    4.0261E+01  9.9456E-03   4.0251E+01  0.000E+00  0.000E+00  0.000E+00  1.38038E+02  4.488E+00  9.950E+00  1.994E-03  8.662E-03  1.284E-03
   1    4   23     1    23    4.0251E+01  9.9434E-03   4.0241E+01  0.000E+00  0.000E+00  0.000E+00  1.37737E+02  4.487E+00  9.948E+00  1.994E-03  8.659E-03  1.284E-03
   1    4   24     1    24    4.0241E+01  9.9412E-03   4.0231E+01  0.000E+00  0.000E+00  0.000E+00  1.37437E+02  4.487E+00  9.947E+00  1.994E-03  8.656E-03  1.285E-03
   1    4   25     1    25    4.0231E+01  9.9390E-03   4.0221E+01  0.000E+00  0.000E+00  0.000E+00  1.37136E+02  4.486E+00  9.945E+00  1.993E-03  8.653E-03  1.286E-03
   1    4   26     1    26    4.0221E+01  9.9368E-03   4.0211E+01  0.000E+00  0.000E+00  0.000E+00  1.36836E+02  4.486E+00  9.943E+00  1.993E-03  8.651E-03  1.286E-03
   1    4   27     1    27    4.0211E+01  9.9346E-03   4.0201E+01  0.000E+00  0.000E+00  0.000E+00  1.36535E+02  4.485E+00  9.942E+00  1.993E-03  8.648E-03  1.287E-03
   1    4   28     1    28    4.0201E+01  9.9324E-03   4.0191E+01  0.000E+00  0.000E+00  0.000E+00  1.36235E+02  4.485E+00  9.940E+00  1.992E-03  8.645E-03  1.287E-03
   1    4   29     1    29    4.0191E+01  9.9302E-03   4.0181E+01  0.000E+00  0.000E+00  0.000E+00  1.35935E+02  4.485E+00  9.938E+00  1.992E-03  8.643E-03  1.287E-03
   1    4   30     1    30    4.0181E+01  9.9281E-03   4.0171E+01  0.000E+00  0.000E+00  0.000E+00  1.35634E+02  4.484E+00  9.936E+00  1.992E-03  8.641E-03  1.287E-03
   1    4   31     1    31    4.0171E+01  9.9259E-03   4.0161E+01  0.000E+00  0.000E+00  0.000E+00  1.35334E+02  4.484E+00  9.935E+00  1.992E-03  8.640E-03  1.286E-03
   1    4   32     1    32    4.0161E+01  9.9237E-03   4.0151E+01  0.000E+00  0.000E+00  0.000E+00  1.35033E+02  4.483E+00  9.933E+00  1.991E-03  8.639E-03  1.285E-03
   1    4   33     1    33    4.0151E+01  9.9215E-03   4.0141E+01  0.000E+00  0.000E+00  0.000E+00  1.34733E+02  4.483E+00  9.931E+00  1.991E-03  8.638E-03  1.284E-03
   1    4   34     1    34    4.0141E+01  9.9193E-03   4.0132E+01  0.000E+00  0.000E+00  0.000E+00  1.34432E+02  4.482E+00  9.930E+00  1.991E-03  8.637E-03  1.282E-03
   1    4   35     1    35    4.0132E+01  9.9171E-03   4.0122E+01  0.000E+00  0.000E+00  0.000E+00  1.34132E+02  4.482E+00  9.928E+00  1.991E-03  8.637E-03  1.280E-03
   1    4   36     1    36    4.0122E+01  9.9149E-03   4.0112E+01  0.000E+00  0.000E+00  0.000E+00  1.33832E+02  4.482E+00  9.926E+00  1.990E-03  8.638E-03  1.277E-03
   1    4   37     1    37    4.0112E+01  9.9127E-03   4.0102E+01  0.000E+00  0.000E+00  0.000E+00  1.33531E+02  4.481E+00  9.924E+00  1.990E-03  8.639E-03  1.274E-03
   1    4   38     1    38    4.0102E+01  9.9106E-03   4.0092E+01  0.000E+00  0.000E+00  0.000E+00  1.33231E+02  4.481E+00  9.923E+00  1.990E-03  8.640E-03  1.270E-03
   1    4   39     1    39    4.0092E+01  9.9084E-03   4.0082E+01  0.000E+00  0.000E+00  0.000E+00  1.32930E+02  4.480E+00  9.921E+00  1.990E-03  8.642E-03  1.266E-03
   1    4   40     1    40    4.0082E+01  9.9062E-03   4.0072E+01  0.000E+00  0.000E+00  0.000E+00  1.32630E+02  4.480E+00  9.919E+00  1.989E-03  8.645E-03  1.262E-03
   1    4   41     1    41    4.0072E+01  9.9040E-03   4.0062E+01  0.000E+00  0.000E+00  0.000E+00  1.32329E+02  4.479E+00  9.918E+00  1.989E-03  8.647E-03  1.257E-03
   1    4   42     1    42    4.0062E+01  9.9018E-03   4.0052E+01  0.000E+00  0.000E+00  0.000E+00  1.32029E+02  4.479E+00  9.916E+00  1.989E-03  8.650E-03  1.251E-03
   1    4   43     1    43    4.0052E+01  9.8996E-03   4.0042E+01  0.000E+00  0.000E+00  0.000E+00  1.31729E+02  4.479E+00  9.914E+00  1.988E-03  8.654E-03  1.246E-03
   1    4   44     1    44    4.0042E+01  9.8974E-03   4.0032E+01  0.000E+00  0.000E+00  0.000E+00  1.31428E+02  4.478E+00  9.912E+00  1.988E-03  8.687E-03  1.211E-03
   1    4   45     1    45    4.0032E+01  9.8953E-03   4.0023E+01  0.000E+00  0.000E+00  0.000E+00  1.31128E+02  4.478E+00  9.911E+00  1.988E-03  8.692E-03  1.204E-03
   1    4   46     1    46    4.0023E+01  9.8931E-03   4.0013E+01  0.000E+00  0.000E+00  0.000E+00  1.30827E+02  4.477E+00  9.909E+00  1.988E-03  8.698E-03  1.195E-03
   1    4   47     1    47    4.0013E+01  9.8909E-03   4.0003E+01  0.000E+00  0.000E+00  0.000E+00  1.30527E+02  4.477E+00  9.907E+00  1.987E-03  8.708E-03  1.183E-03
   1    4   48     1    48    4.0003E+01  9.8887E-03   3.9993E+01  0.000E+00  0.000E+00  0.000E+00  1.30226E+02  4.476E+00  9.906E+00  1.987E-03  8.736E-03  1.153E-03
   1    4   49     1    49    3.9993E+01  9.8865E-03   3.9983E+01  0.000E+00  0.000E+00  0.000E+00  1.29926E+02  4.476E+00  9.904E+00  1.987E-03  7.770E-03  2.117E-03
   1    4   50     1    50    3.9983E+01  9.8844E-03   3.9973E+01  0.000E+00  0.000E+00  0.000E+00  1.29626E+02  4.476E+00  9.902E+00  1.987E-03  5.647E-03  4.238E-03
   1    4   51     1    51    3.9973E+01  9.8822E-03   3.9963E+01  0.000E+00  0.000E+00  0.000E+00  1.29325E+02  4.475E+00  9.900E+00  1.986E-03  5.627E-03  4.255E-03
   1    4   52     1    52    3.9963E+01  9.8800E-03   3.9953E+01  0.000E+00  0.000E+00  0.000E+00  1.29025E+02  4.475E+00  9.899E+00  1.986E-03  5.624E-03  4.255E-03
   1    4   53     1    53    3.9953E+01  9.8778E-03   3.9943E+01  0.000E+00  0.000E+00  0.000E+00  1.28724E+02  4.474E+00  9.897E+00  1.986E-03  5.629E-03  4.249E-03
   1    4   54     1    54    3.9943E+01  9.8756E-03   3.9934E+01  0.000E+00  0.000E+00  0.000E+00  1.28424E+02  4.474E+00  9.895E+00  1.986E-03  5.635E-03  4.241E-03
   1    4   55     1    55    3.9934E+01  9.8734E-03   3.9924E+01  0.000E+00  0.000E+00  0.000E+00  1.28123E+02  4.473E+00  9.894E+00  1.985E-03  5.645E-03  4.228E-03
   1    4   56     1    56    3.9924E+01  9.8713E-03   3.9914E+01  0.000E+00  0.000E+00  0.000E+00  1.27823E+02  4.473E+00  9.892E+00  1.985E-03  7.732E-03  2.140E-03
   1    4   57     1    57    3.9914E+01  9.8691E-03   3.9904E+01  0.000E+00  0.000E+00  0.000E+00  1.27523E+02  4.473E+00  9.890E+00  1.985E-03  8.726E-03  1.143E-03
   1    4   58     1    58    3.9904E+01  9.8669E-03   3.9894E+01  0.000E+00  0.000E+00  0.000E+00  1.27222E+02  4.472E+00  9.889E+00  1.984E-03  8.686E-03  1.181E-03
   1    4   59     1    59    3.9894E+01  9.8647E-03   3.9884E+01  0.000E+00  0.000E+00  0.000E+00  1.26922E+02  4.472E+00  9.887E+00  1.984E-03  8.666E-03  1.199E-03
   1    4   60     1    60    3.9884E+01  9.8625E-03   3.9874E+01  0.000E+00  0.000E+00  0.000E+00  1.26621E+02  4.471E+00  9.885E+00  1.984E-03  8.649E-03  1.213E-03
   1    4   61     1    61    3.9874E+01  9.8604E-03   3.9865E+01  0.000E+00  0.000E+00  0.000E+00  1.26321E+02  4.471E+00  9.883E+00  1.984E-03  8.636E-03  1.225E-03
   1    4   62     1    62    3.9865E+01  9.8582E-03   3.9855E+01  0.000E+00  0.000E+00  0.000E+00  1.26020E+02  4.470E+00  9.882E+00  1.983E-03  8.624E-03  1.234E-03
   1    4   63     1    63    3.9855E+01  9.8560E-03   3.9845E+01  0.000E+00  0.000E+00  0.000E+00  1.25720E+02  4.470E+00  9.880E+00  1.983E-03  8.614E-03  1.242E-03
   1    4   64     1    64    3.9845E+01  9.8538E-03   3.9835E+01  0.000E+00  0.000E+00  0.000E+00  1.25420E+02  4.470E+00  9.878E+00  1.983E-03  8.580E-03  1.273E-03
   1    4   65     1    65    3.9835E+01  9.8517E-03   3.9825E+01  0.000E+00  0.000E+00  0.000E+00  1.25119E+02  4.469E+00  9.877E+00  1.983E-03  8.573E-03  1.278E-03
   1    4   66     1    66    3.9825E+01  9.8495E-03   3.9815E+01  0.000E+00  0.000E+00  0.000E+00  1.24819E+02  4.469E+00  9.875E+00  1.982E-03  8.567E-03  1.282E-03
   1    4   67     1    67    3.9815E+01  9.8473E-03   3.9805E+01  0.000E+00  0.000E+00  0.000E+00  1.24518E+02  4.468E+00  9.873E+00  1.982E-03  8.563E-03  1.285E-03
   1    4   68     1    68    3.9805E+01  9.8451E-03   3.9796E+01  0.000E+00  0.000E+00  0.000E+00  1.24218E+02  4.468E+00  9.871E+00  1.982E-03  8.559E-03  1.286E-03
   1    4   69     1    69    3.9796E+01  9.8430E-03   3.9786E+01  0.000E+00  0.000E+00  0.000E+00  1.23917E+02  4.467E+00  9.870E+00  1.981E-03  8.556E-03  1.287E-03
   1    4   70     1    70    3.9786E+01  9.8408E-03   3.9776E+01  0.000E+00  0.000E+00  0.000E+00  1.23617E+02  4.467E+00  9.868E+00  1.981E-03  8.554E-03  1.287E-03
   1    4   71     1    71    3.9776E+01  9.8386E-03   3.9766E+01  0.000E+00  0.000E+00  0.000E+00  1.23317E+02  4.467E+00  9.866E+00  1.981E-03  8.552E-03  1.286E-03
   1    4   72     1    72    3.9766E+01  9.8364E-03   3.9756E+01  0.000E+00  0.000E+00  0.000E+00  1.23016E+02  4.466E+00  9.865E+00  1.981E-03  8.552E-03  1.285E-03
   1    4   73     1    73    3.9756E+01  9.8343E-03   3.9746E+01  0.000E+00  0.000E+00  0.000E+00  1.22716E+02  4.466E+00  9.863E+00  1.980E-03  8.552E-03  1.282E-03
   1    4   74     1    74    3.9746E+01  9.8321E-03   3.9737E+01  0.000E+00  0.000E+00  0.000E+00  1.22415E+02  4.465E+00  9.861E+00  1.980E-03  8.553E-03  1.279E-03
   1    4   75     1    75    3.9737E+01  9.8299E-03   3.9727E+01  0.000E+00  0.000E+00  0.000E+00  1.22115E+02  4.465E+00  9.859E+00  1.980E-03  8.555E-03  1.275E-03
   1    4   76     1    76    3.9727E+01  9.8277E-03   3.9717E+01  0.000E+00  0.000E+00  0.000E+00  1.21814E+02  4.464E+00  9.858E+00  1.980E-03  8.557E-03  1.271E-03
   1    4   77     1    77    3.9717E+01  9.8256E-03   3.9707E+01  0.000E+00  0.000E+00  0.000E+00  1.21514E+02  4.464E+00  9.856E+00  1.979E-03  8.560E-03  1.266E-03
   1    4   78     1    78    3.9707E+01  9.8234E-03   3.9697E+01  0.000E+00  0.000E+00  0.000E+00  1.21214E+02  4.464E+00  9.854E+00  1.979E-03  8.563E-03  1.260E-03
   1    4   79     1    79    3.9697E+01  9.8212E-03   3.9687E+01  0.000E+00  0.000E+00  0.000E+00  1.20913E+02  4.463E+00  9.853E+00  1.979E-03  8.567E-03  1.254E-03
   1    4   80     1    80    3.9687E+01  9.8190E-03   3.9678E+01  0.000E+00  0.000E+00  0.000E+00  1.20613E+02  4.463E+00  9.851E+00  1.979E-03  8.572E-03  1.247E-03
   1    4   81     1    81    3.9678E+01  9.8169E-03   3.9668E+01  0.000E+00  0.000E+00  0.000E+00  1.20312E+02  4.462E+00  9.849E+00  1.978E-03  8.577E-03  1.240E-03
   1    4   82     1    82    3.9668E+01  9.8147E-03   3.9658E+01  0.000E+00  0.000E+00  0.000E+00  1.20012E+02  4.462E+00  9.848E+00  1.978E-03  8.582E-03  1.233E-03
   1    4   83     1    83    3.9658E+01  9.8125E-03   3.9648E+01  0.000E+00  0.000E+00  0.000E+00  1.19711E+02  4.461E+00  9.846E+00  1.978E-03  8.588E-03  1.225E-03
   1    4   84     1    84    3.9648E+01  9.8104E-03   3.9638E+01  0.000E+00  0.000E+00  0.000E+00  1.19411E+02  4.461E+00  9.844E+00  1.977E-03  8.594E-03  1.217E-03
   1    4   85     1    85    3.9638E+01  9.8082E-03   3.9629E+01  0.000E+00  0.000E+00  0.000E+00  1.19111E+02  4.461E+00  9.842E+00  1.977E-03  8.600E-03  1.208E-03
   1    4   86     1    86    3.9629E+01  9.8060E-03   3.9619E+01  0.000E+00  0.000E+00  0.000E+00  1.18810E+02  4.460E+00  9.841E+00  1.977E-03  8.607E-03  1.199E-03
   1    4   87     1    87    3.9619E+01  9.8039E-03   3.9609E+01  0.000E+00  0.000E+00  0.000E+00  1.18510E+02  4.460E+00  9.839E+00  1.977E-03  8.613E-03  1.191E-03
   1    4   88     1    88    3.9609E+01  9.8017E-03   3.9599E+01  0.000E+00  0.000E+00  0.000E+00  1.18209E+02  4.459E+00  9.837E+00  1.976E-03  8.620E-03  1.182E-03
   1    4   89     1    89    3.9599E+01  9.7995E-03   3.9589E+01  0.000E+00  0.000E+00  0.000E+00  1.17909E+02  4.459E+00  9.836E+00  1.976E-03  8.626E-03  1.173E-03
   1    4   90     1    90    3.9589E+01  9.7973E-03   3.9580E+01  0.000E+00  0.000E+00  0.000E+00  1.17608E+02  4.458E+00  9.834E+00  1.976E-03  8.632E-03  1.165E-03
   1    4   91     1    91    3.9580E+01  9.7952E-03   3.9570E+01  0.000E+00  0.000E+00  0.000E+00  1.17308E+02  4.458E+00  9.832E+00  1.976E-03  8.638E-03  1.157E-03
   1    4   92     1    92    3.9570E+01  9.7930E-03   3.9560E+01  0.000E+00  0.000E+00  0.000E+00  1.17008E+02  4.458E+00  9.830E+00  1.975E-03  8.643E-03  1.150E-03
   1    4   93     1    93    3.9560E+01  9.7908E-03   3.9550E+01  0.000E+00  0.000E+00  0.000E+00  1.16707E+02  4.457E+00  9.829E+00  1.975E-03  8.648E-03  1.143E-03
   1    4   94     1    94    3.9550E+01  9.7887E-03   3.9540E+01  0.000E+00  0.000E+00  0.000E+00  1.16407E+02  4.457E+00  9.827E+00  1.975E-03  8.651E-03  1.137E-03
   1    4   95     1    95    3.9540E+01  9.7865E-03   3.9531E+01  0.000E+00  0.000E+00  0.000E+00  1.16106E+02  4.456E+00  9.825E+00  1.975E-03  8.654E-03  1.133E-03
   1    4   96     1    96    3.9531E+01  9.7843E-03   3.9521E+01  0.000E+00  0.000E+00  0.000E+00  1.15806E+02  4.456E+00  9.824E+00  1.974E-03  8.655E-03  1.130E-03
   1    4   97     1    97    3.9521E+01  9.7822E-03   3.9511E+01  0.000E+00  0.000E+00  0.000E+00  1.15505E+02  4.455E+00  9.822E+00  1.974E-03  8.654E-03  1.128E-03
   1    4   98     1    98    3.9511E+01  9.7800E-03   3.9501E+01  0.000E+00  0.000E+00  0.000E+00  1.15205E+02  4.455E+00  9.820E+00  1.974E-03  8.653E-03  1.127E-03
   1    4   99     1    99    3.9501E+01  9.7778E-03   3.9491E+01  0.000E+00  0.000E+00  0.000E+00  1.14905E+02  4.455E+00  9.818E+00  1.973E-03  8.651E-03  1.127E-03
   1    4  100     1   100    3.9491E+01  9.7757E-03   3.9482E+01  0.000E+00  0.000E+00  0.000E+00  1.14604E+02  4.454E+00  9.817E+00  1.973E-03  8.648E-03  1.127E-03



1
  VOLUMETRIC BUDGET FOR UNSATURATED ZONE BENEATH STREAMS AT END OF TIME STEP    30 STRESS PERIOD  18
  ------------------------------------------------------------------------------------------------

    CUMULATIVE VOLUMES             L**3    RATES FOR THIS TIME STEP         L**3/T
    ------------------                     ------------------------


          STREAM LOSS =     19290144.0000            STREAM LOSS =            0.9883
    CHANGE IN STORAGE =      2718620.2500      CHANGE IN STORAGE =            0.1444
       RECHARGE TO GW =     16576314.0000         RECHARGE TO GW =            0.8439

             TOTAL IN =     19290144.0000               TOTAL IN =            0.9883

            TOTAL OUT =     19294934.0000              TOTAL OUT =            0.9883

             IN - OUT =        -4790.0000               IN - OUT =       -1.1921E-07

  PERCENT DISCREPANCY =           -0.01      PERCENT DISCREPANCY =            -0.00



1
  VOLUMETRIC BUDGET FOR ENTIRE MODEL AT END OF TIME STEP   30, STRESS PERIOD  18
  ------------------------------------------------------------------------------

     CUMULATIVE VOLUMES      L**3       RATES FOR THIS TIME STEP      L**3/T
     ------------------                 ------------------------

           IN:                                      IN:
           ---                                      ---
             STORAGE     =    81788936.0000               STORAGE     =           0.2657
       CONSTANT HEAD     =           0.0000         CONSTANT HEAD     =           0.0000
               WELLS     =           0.0000                 WELLS     =           0.0000
     HEAD DEP BOUNDS     =           0.0000       HEAD DEP BOUNDS     =           0.0000
      STREAM LEAKAGE     =    16576326.0000        STREAM LEAKAGE     =           0.8439

                TOTAL IN =    98365264.0000                  TOTAL IN =           1.1096

          OUT:                                     OUT:
          ----                                     ----
             STORAGE     =     2421382.5000               STORAGE     =       1.3651E-03
       CONSTANT HEAD     =           0.0000         CONSTANT HEAD     =           0.0000
               WELLS     =    80917912.0000                 WELLS     =           1.0039
     HEAD DEP BOUNDS     =    15025999.0000       HEAD DEP BOUNDS     =           0.1043
      STREAM LEAKAGE     =           0.0000        STREAM LEAKAGE     =           0.0000

               TOTAL OUT =    98365296.0000                 TOTAL OUT =           1.1096

                IN - OUT =         -32.0000                  IN - OUT =           0.0000

     PERCENT DISCREPANCY =          -0.00         PERCENT DISCREPANCY =           0.00






         TIME SUMMARY AT END OF TIME STEP   30 IN STRESS PERIOD   18
                    SECONDS     MINUTES      HOURS       DAYS        YEARS
                    -----------------------------------------------------------
   TIME STEP LENGTH 2.49961E+05  4166.0      69.434      2.8931     7.92080E-03
 STRESS PERIOD TIME 2.59200E+06  43200.      720.00      30.000     8.21355E-02
         TOTAL TIME 4.66560E+07 7.77600E+05  12960.      540.00      1.4784    
1
1
                            STRESS PERIOD NO.   19, LENGTH =   2592000.    
                            -----------------------------------------------

                              NUMBER OF TIME STEPS =    30

                               MULTIPLIER FOR DELT =     1.100

                            INITIAL TIME STEP SIZE =   15757.40    

 REUSING NON-PARAMETER WELLS FROM LAST STRESS PERIOD

      1 WELL 

 REUSING NON-PARAMETER GHB CELLS FROM LAST STRESS PERIOD

      7 GHB CELLS



 CLASSIFICATION & COUNT OF STREAM SEGMENTS BASED ON SOURCE OF INFLOW:

                HEADWATER     DIVERSION     RECEIVES TRIBUTARY FLOW
                ---------     ---------     -----------------------
                     1              0               0



                    INPUT DATA FOR EACH STREAM SEGMENT
 ---------------------------------------------------------------------------------------------

 SEGMENT    SEG.     INFLOW   OVERLAND   STREAM    STREAM   ICALC  OUTFLOW  DIVERSION PRIORITY
    NO.    LENGTH     RATE     RUNOFF      ET       PPT.    METH.  TO SEG.  FROM SEG.    NO.

      1  2.000E+04 6.556E+01 0.000E+00 0.000E+00 0.000E+00    2        0        0        0


         STREAMBED PROPERTIES AND STREAM DIMENSIONS

 SEGMENT     BED HYD. COND.      BED THICKNESS     ELEV.-TOP OF BED     WIDTH OF STREAM     DEPTH OF STREAM    STREAM ROUGHNESS
    No.     UPPER     LOWER     UPPER     LOWER     UPPER     LOWER     UPPER     LOWER     UPPER     LOWER   CHANNEL      BANK

     1  3.500E-07 3.500E-07                                                                                 3.000E-02 4.000E-02

  EIGHT POINT CROSS-SECTION DATA FOR SEGMENTS WITH ICALC = 2
    X VALUES X VALUES START FROM LEFT SIDE LOOKING DOWNSTREAM

     SEGMENT NO.        X1        X2        X3        X4        X5        X6        X7        X8
            1      0.000E+00 2.000E+00 4.000E+00 6.000E+00 8.000E+00 1.000E+01 1.200E+01 1.400E+01

    Z VALUES ARE RELATIVE TO STREAMBED ELEVATION

     SEGMENT NO.          Z1        Z2        Z3        Z4        Z5        Z6        Z7        Z8
            1      6.000E+00 4.500E+00 3.500E+00 0.000E+00 3.000E-01 3.500E+00 4.500E+00 6.000E+00



 
 SOLVING FOR HEAD 
                                                   Max.-Head-Change                         Max.-Flux-Residual
  Residual-Control   Outer-Iter.   Inner-Iter.     Column Row Layer    Maximum-Head-Change  Column Row Layer    Maximum-Flux-Residual          L2-NORM 
          0                 1           2            56    4     1       0.5441216101E-02      50    3    1        -0.3939474614E+00      0.5162504033E+00
          0                 2           2            71    1     1       0.4407247208E-03      50    3    1         0.1885318558E+00      0.2004953269E+00
          0                 3           1            71    1     1      -0.3920571331E-04      50    3    1        -0.2502468341E-01      0.2604767819E-01
          0                 4           1            71    1     1       0.3111894205E-05      50    3    1         0.2033122681E-02      0.2112123097E-02
          0                 5           1            71    1     1      -0.2167800701E-06      50    3    1        -0.1428690845E-03      0.1484369546E-03

    ------------------------------------------------
       NWT REQUIRED            5 OUTER ITERATIONS 
       AND A TOTAL OF          7 INNER ITERATIONS.
    ------------------------------------------------

 NO OUTPUT CONTROL FOR STRESS PERIOD   19   TIME STEP    1
 
 WELLS WITH REDUCED PUMPING FOR STRESS PERIOD    19 TIME STEP     1
   LAY   ROW   COL         APPL.Q          ACT.Q        GW-HEAD       CELL-BOT
     1     3    50  -0.106922E+01  -0.543743E+00   0.566378E-03   0.000000E+00
     1     5    55  -0.106922E+01  -0.460205E+00   0.503356E-03   0.000000E+00
 
 
 SOLVING FOR HEAD 
                                                   Max.-Head-Change                         Max.-Flux-Residual
  Residual-Control   Outer-Iter.   Inner-Iter.     Column Row Layer    Maximum-Head-Change  Column Row Layer    Maximum-Flux-Residual          L2-NORM 
          0                 1           2            71    1     1      -0.5010780215E-02      71    1    1        -0.9497245154E-03      0.1220737963E-01
          0                 2           2            71    1     1       0.4823988982E-03      71    1    1         0.9497216662E-04      0.1241637273E-02
          0                 3           1            71    1     1      -0.4284674166E-04      71    1    1        -0.8547518632E-05      0.1144045401E-03
          0                 4           1            71    1     1       0.3400280314E-05      71    1    1         0.6846562162E-06      0.9190041646E-05
          0                 5           1            71    1     1      -0.2368721752E-06      71    1    1        -0.4813067278E-07      0.6461033624E-06

    ------------------------------------------------
       NWT REQUIRED            5 OUTER ITERATIONS 
       AND A TOTAL OF          7 INNER ITERATIONS.
    ------------------------------------------------

 NO OUTPUT CONTROL FOR STRESS PERIOD   19   TIME STEP    2
 
 WELLS WITH REDUCED PUMPING FOR STRESS PERIOD    19 TIME STEP     2
   LAY   ROW   COL         APPL.Q          ACT.Q        GW-HEAD       CELL-BOT
     1     3    50  -0.106993E+01  -0.543693E+00   0.566092E-03   0.000000E+00
     1     5    55  -0.106993E+01  -0.460178E+00   0.503124E-03   0.000000E+00
 
 
 SOLVING FOR HEAD 
                                                   Max.-Head-Change                         Max.-Flux-Residual
  Residual-Control   Outer-Iter.   Inner-Iter.     Column Row Layer    Maximum-Head-Change  Column Row Layer    Maximum-Flux-Residual          L2-NORM 
          0                 1           2            71    1     1      -0.5503749358E-02      71    1    1        -0.9487687944E-03      0.1216193149E-01
          0                 2           2            71    1     1       0.5277733574E-03      71    1    1         0.9487652815E-04      0.1239796160E-02
          0                 3           1            71    1     1      -0.4678911909E-04      71    1    1        -0.8538916488E-05      0.1150495716E-03
          0                 4           1            71    1     1       0.3711880387E-05      73    4    1        -0.6870729337E-06      0.9260786468E-05
          0                 5           1            71    1     1      -0.2585790767E-06      73    4    1         0.4828920019E-07      0.6512248933E-06

    ------------------------------------------------
       NWT REQUIRED            5 OUTER ITERATIONS 
       AND A TOTAL OF          7 INNER ITERATIONS.
    ------------------------------------------------

 NO OUTPUT CONTROL FOR STRESS PERIOD   19   TIME STEP    3
 
 WELLS WITH REDUCED PUMPING FOR STRESS PERIOD    19 TIME STEP     3
   LAY   ROW   COL         APPL.Q          ACT.Q        GW-HEAD       CELL-BOT
     1     3    50  -0.107009E+01  -0.543679E+00   0.566026E-03   0.000000E+00
     1     5    55  -0.107009E+01  -0.460178E+00   0.503076E-03   0.000000E+00
 
 
 SOLVING FOR HEAD 
                                                   Max.-Head-Change                         Max.-Flux-Residual
  Residual-Control   Outer-Iter.   Inner-Iter.     Column Row Layer    Maximum-Head-Change  Column Row Layer    Maximum-Flux-Residual          L2-NORM 
          0                 1           2            71    1     1      -0.6044389818E-02      71    1    1        -0.9477191179E-03      0.1213865150E-01
          0                 2           2            71    1     1       0.5771484541E-03      71    1    1         0.9477148072E-04      0.1238715958E-02
          0                 3           1            71    1     1      -0.5105222452E-04      73    4    1         0.8799030786E-05      0.1157731494E-03
          0                 4           1            71    1     1       0.4047885280E-05      73    4    1        -0.7340050026E-06      0.9344233103E-05
          0                 5           1            71    1     1      -0.2819758029E-06      73    4    1         0.5167428441E-07      0.6573822650E-06

    ------------------------------------------------
       NWT REQUIRED            5 OUTER ITERATIONS 
       AND A TOTAL OF          7 INNER ITERATIONS.
    ------------------------------------------------

 NO OUTPUT CONTROL FOR STRESS PERIOD   19   TIME STEP    4
 
 WELLS WITH REDUCED PUMPING FOR STRESS PERIOD    19 TIME STEP     4
   LAY   ROW   COL         APPL.Q          ACT.Q        GW-HEAD       CELL-BOT
     1     3    50  -0.106994E+01  -0.543660E+00   0.566063E-03   0.000000E+00
     1     5    55  -0.106994E+01  -0.460174E+00   0.503117E-03   0.000000E+00
 
 
 SOLVING FOR HEAD 
                                                   Max.-Head-Change                         Max.-Flux-Residual
  Residual-Control   Outer-Iter.   Inner-Iter.     Column Row Layer    Maximum-Head-Change  Column Row Layer    Maximum-Flux-Residual          L2-NORM 
          0                 1           2            71    1     1      -0.6637163886E-02      71    1    1        -0.9465664090E-03      0.1212897112E-01
          0                 2           2            71    1     1       0.6308484032E-03      71    1    1         0.9465611442E-04      0.1237457072E-02
          0                 3           1            71    1     1      -0.5565633445E-04      72    4    1         0.9225618479E-05      0.1165042753E-03
          0                 4           1            71    1     1       0.4409466883E-05      73    4    1        -0.7821174766E-06      0.9434184800E-05
          0                 5           1            71    1     1      -0.3071322126E-06      73    4    1         0.5523092206E-07      0.6642215204E-06

    ------------------------------------------------
       NWT REQUIRED            5 OUTER ITERATIONS 
       AND A TOTAL OF          7 INNER ITERATIONS.
    ------------------------------------------------

 NO OUTPUT CONTROL FOR STRESS PERIOD   19   TIME STEP    5
 
 WELLS WITH REDUCED PUMPING FOR STRESS PERIOD    19 TIME STEP     5
   LAY   ROW   COL         APPL.Q          ACT.Q        GW-HEAD       CELL-BOT
     1     3    50  -0.107007E+01  -0.543635E+00   0.566000E-03   0.000000E+00
     1     5    55  -0.107007E+01  -0.460166E+00   0.503072E-03   0.000000E+00
 
 
 SOLVING FOR HEAD 
                                                   Max.-Head-Change                         Max.-Flux-Residual
  Residual-Control   Outer-Iter.   Inner-Iter.     Column Row Layer    Maximum-Head-Change  Column Row Layer    Maximum-Flux-Residual          L2-NORM 
          0                 1           2            52    4     1       0.2079954989E-01      52    4    1         0.2790856009E-02      0.1274576347E-01
          0                 2           2            53    4     1       0.8692501913E-03      53    4    1         0.1075027020E-03      0.1245127356E-02
          0                 3           1            71    1     1      -0.6062276931E-04      72    4    1         0.9642655881E-05      0.1174522104E-03
          0                 4           1            71    1     1       0.4797772643E-05      73    4    1        -0.8310592179E-06      0.9533275261E-05
          0                 5           1            71    1     1      -0.3341106735E-06      73    4    1         0.5894739807E-07      0.6721872702E-06

    ------------------------------------------------
       NWT REQUIRED            5 OUTER ITERATIONS 
       AND A TOTAL OF          7 INNER ITERATIONS.
    ------------------------------------------------

 NO OUTPUT CONTROL FOR STRESS PERIOD   19   TIME STEP    6
 
 WELLS WITH REDUCED PUMPING FOR STRESS PERIOD    19 TIME STEP     6
   LAY   ROW   COL         APPL.Q          ACT.Q        GW-HEAD       CELL-BOT
     1     3    50  -0.106994E+01  -0.543610E+00   0.566030E-03   0.000000E+00
     1     5    55  -0.106994E+01  -0.460170E+00   0.503116E-03   0.000000E+00
 
 
 SOLVING FOR HEAD 
                                                   Max.-Head-Change                         Max.-Flux-Residual
  Residual-Control   Outer-Iter.   Inner-Iter.     Column Row Layer    Maximum-Head-Change  Column Row Layer    Maximum-Flux-Residual          L2-NORM 
          0                 1           2            51    4     1       0.2263902193E-01      51    4    1         0.2882719232E-02      0.1288935562E-01
          0                 2           2            54    4     1       0.7650640546E-03      71    1    1         0.9439034884E-04      0.1245631054E-02
          0                 3           1            71    1     1      -0.6597405560E-04      72    4    1         0.1004412519E-04      0.1180460312E-03
          0                 4           1            71    1     1       0.5213926644E-05      73    4    1        -0.8804806111E-06      0.9634618748E-05
          0                 5           1            71    7     1      -0.3629650528E-06      73    4    1         0.6280895448E-07      0.6800282306E-06

    ------------------------------------------------
       NWT REQUIRED            5 OUTER ITERATIONS 
       AND A TOTAL OF          7 INNER ITERATIONS.
    ------------------------------------------------

 NO OUTPUT CONTROL FOR STRESS PERIOD   19   TIME STEP    7
 
 WELLS WITH REDUCED PUMPING FOR STRESS PERIOD    19 TIME STEP     7
   LAY   ROW   COL         APPL.Q          ACT.Q        GW-HEAD       CELL-BOT
     1     3    50  -0.107003E+01  -0.543632E+00   0.566013E-03   0.000000E+00
     1     5    55  -0.107003E+01  -0.460211E+00   0.503116E-03   0.000000E+00
 
 
 SOLVING FOR HEAD 
                                                   Max.-Head-Change                         Max.-Flux-Residual
  Residual-Control   Outer-Iter.   Inner-Iter.     Column Row Layer    Maximum-Head-Change  Column Row Layer    Maximum-Flux-Residual          L2-NORM 
          0                 1           2            51    4     1       0.1468145030E-01      51    4    1         0.1623094985E-02      0.1238126254E-01
          0                 2           2            71    1     1       0.8215507429E-03      71    1    1         0.9423767325E-04      0.1242138129E-02
          0                 3           1            71    1     1      -0.7173416107E-04      72    4    1         0.1042914453E-04      0.1189210073E-03
          0                 4           1            71    1     1       0.5659038600E-05      73    4    1        -0.9300369559E-06      0.9767022528E-05
          0                 5           1            71    7     1      -0.3937402199E-06      73    4    1         0.6679656472E-07      0.6906943168E-06

    ------------------------------------------------
       NWT REQUIRED            5 OUTER ITERATIONS 
       AND A TOTAL OF          7 INNER ITERATIONS.
    ------------------------------------------------

 NO OUTPUT CONTROL FOR STRESS PERIOD   19   TIME STEP    8
 
 WELLS WITH REDUCED PUMPING FOR STRESS PERIOD    19 TIME STEP     8
   LAY   ROW   COL         APPL.Q          ACT.Q        GW-HEAD       CELL-BOT
     1     3    50  -0.107004E+01  -0.543670E+00   0.566035E-03   0.000000E+00
     1     5    55  -0.107004E+01  -0.460269E+00   0.503153E-03   0.000000E+00
 
 
 SOLVING FOR HEAD 
                                                   Max.-Head-Change                         Max.-Flux-Residual
  Residual-Control   Outer-Iter.   Inner-Iter.     Column Row Layer    Maximum-Head-Change  Column Row Layer    Maximum-Flux-Residual          L2-NORM 
          0                 1           2            55    4     1       0.2498442560E-01      55    4    1         0.3101561740E-02      0.1270145757E-01
          0                 2           2            71    1     1       0.8963597433E-03      71    1    1         0.9407011117E-04      0.1242174507E-02
          0                 3           1            71    7     1      -0.7792872881E-04      72    4    1         0.1079691504E-04      0.1198651790E-03
          0                 4           1            71    7     1       0.6134215345E-05      73    4    1        -0.9793916487E-06      0.9899871796E-05
          0                 5           1            71    7     1      -0.4264712171E-06      73    4    1         0.7088734932E-07      0.7018865267E-06

    ------------------------------------------------
       NWT REQUIRED            5 OUTER ITERATIONS 
       AND A TOTAL OF          7 INNER ITERATIONS.
    ------------------------------------------------

 NO OUTPUT CONTROL FOR STRESS PERIOD   19   TIME STEP    9
 
 WELLS WITH REDUCED PUMPING FOR STRESS PERIOD    19 TIME STEP     9
   LAY   ROW   COL         APPL.Q          ACT.Q        GW-HEAD       CELL-BOT
     1     3    50  -0.106996E+01  -0.544218E+00   0.566448E-03   0.000000E+00
     1     5    55  -0.106996E+01  -0.461265E+00   0.503875E-03   0.000000E+00
 
 
 SOLVING FOR HEAD 
                                                   Max.-Head-Change                         Max.-Flux-Residual
  Residual-Control   Outer-Iter.   Inner-Iter.     Column Row Layer    Maximum-Head-Change  Column Row Layer    Maximum-Flux-Residual          L2-NORM 
          0                 1           2            50    4     1       0.1834718465E-01      50    4    1         0.2208369963E-02      0.1274110614E-01
          0                 2           2            71    1     1       0.9775653769E-03      71    1    1         0.9388625153E-04      0.1250997942E-02
          0                 3           1            71    7     1      -0.8458538684E-04      72    4    1         0.1114671640E-04      0.1209727133E-03
          0                 4           1            71    7     1       0.6640576100E-05      73    4    1        -0.1028228981E-05      0.1003859448E-04
          0                 5           1            70    1     1      -0.4611948501E-06      73    4    1         0.7505560617E-07      0.7143513543E-06

    ------------------------------------------------
       NWT REQUIRED            5 OUTER ITERATIONS 
       AND A TOTAL OF          7 INNER ITERATIONS.
    ------------------------------------------------

 NO OUTPUT CONTROL FOR STRESS PERIOD   19   TIME STEP   10
 
 WELLS WITH REDUCED PUMPING FOR STRESS PERIOD    19 TIME STEP    10
   LAY   ROW   COL         APPL.Q          ACT.Q        GW-HEAD       CELL-BOT
     1     3    50  -0.107002E+01  -0.545008E+00   0.566975E-03   0.000000E+00
     1     5    55  -0.107002E+01  -0.461807E+00   0.504232E-03   0.000000E+00
 
 
 SOLVING FOR HEAD 
                                                   Max.-Head-Change                         Max.-Flux-Residual
  Residual-Control   Outer-Iter.   Inner-Iter.     Column Row Layer    Maximum-Head-Change  Column Row Layer    Maximum-Flux-Residual          L2-NORM 
          0                 1           2            71    1     1      -0.1159163851E-01       2    4    1         0.1138103395E-02      0.1230972733E-01
          0                 2           2            71    1     1       0.1065692822E-02      71    1    1         0.9368455871E-04      0.1239119948E-02
          0                 3           1            71    7     1      -0.9173400836E-04      72    4    1         0.1147789886E-04      0.1209301004E-03
          0                 4           1            71    7     1       0.7179259808E-05      72    4    1        -0.1076598982E-05      0.1009717401E-04
          0                 5           1            70    1     1      -0.4980693446E-06      73    4    1         0.7927409662E-07      0.7205751161E-06

    ------------------------------------------------
       NWT REQUIRED            5 OUTER ITERATIONS 
       AND A TOTAL OF          7 INNER ITERATIONS.
    ------------------------------------------------

 NO OUTPUT CONTROL FOR STRESS PERIOD   19   TIME STEP   11
 
 WELLS WITH REDUCED PUMPING FOR STRESS PERIOD    19 TIME STEP    11
   LAY   ROW   COL         APPL.Q          ACT.Q        GW-HEAD       CELL-BOT
     1     3    50  -0.107004E+01  -0.545416E+00   0.567256E-03   0.000000E+00
     1     5    55  -0.107004E+01  -0.462122E+00   0.504448E-03   0.000000E+00
 
 
 SOLVING FOR HEAD 
                                                   Max.-Head-Change                         Max.-Flux-Residual
  Residual-Control   Outer-Iter.   Inner-Iter.     Column Row Layer    Maximum-Head-Change  Column Row Layer    Maximum-Flux-Residual          L2-NORM 
          0                 1           2            71    1     1      -0.1271097508E-01      95    4    1         0.1095254604E-02      0.1233071250E-01
          0                 2           2            71    1     1       0.1161311630E-02      71    1    1         0.9346336381E-04      0.1233035174E-02
          0                 3           1            71    7     1      -0.9940707676E-04      72    4    1         0.1178987889E-04      0.1210028578E-03
          0                 4           1            70    1     1       0.7753156069E-05      72    4    1        -0.1124171773E-05      0.1016558056E-04
          0                 5           1            70    1     1      -0.5369740493E-06      73    4    1         0.8351031333E-07      0.7279085094E-06

    ------------------------------------------------
       NWT REQUIRED            5 OUTER ITERATIONS 
       AND A TOTAL OF          7 INNER ITERATIONS.
    ------------------------------------------------

 NO OUTPUT CONTROL FOR STRESS PERIOD   19   TIME STEP   12
 
 WELLS WITH REDUCED PUMPING FOR STRESS PERIOD    19 TIME STEP    12
   LAY   ROW   COL         APPL.Q          ACT.Q        GW-HEAD       CELL-BOT
     1     3    50  -0.106996E+01  -0.545646E+00   0.567444E-03   0.000000E+00
     1     5    55  -0.106996E+01  -0.462320E+00   0.504609E-03   0.000000E+00
 
 
 SOLVING FOR HEAD 
                                                   Max.-Head-Change                         Max.-Flux-Residual
  Residual-Control   Outer-Iter.   Inner-Iter.     Column Row Layer    Maximum-Head-Change  Column Row Layer    Maximum-Flux-Residual          L2-NORM 
          0                 1           2            71    1     1      -0.1393476411E-01      99    4    1         0.9739617775E-03      0.1211074622E-01
          0                 2           2            71    1     1       0.1265038668E-02      71    1    1         0.9322085594E-04      0.1227828520E-02
          0                 3           1            71    7     1      -0.1076399939E-03      72    4    1         0.1208213323E-04      0.1214661588E-03
          0                 4           1            70    1     1       0.8362104178E-05      72    4    1        -0.1170398708E-05      0.1027041762E-04
          0                 5           1            70    1     1      -0.5779086328E-06      72    4    1         0.8773414528E-07      0.7383909282E-06

    ------------------------------------------------
       NWT REQUIRED            5 OUTER ITERATIONS 
       AND A TOTAL OF          7 INNER ITERATIONS.
    ------------------------------------------------

 NO OUTPUT CONTROL FOR STRESS PERIOD   19   TIME STEP   13
 
 WELLS WITH REDUCED PUMPING FOR STRESS PERIOD    19 TIME STEP    13
   LAY   ROW   COL         APPL.Q          ACT.Q        GW-HEAD       CELL-BOT
     1     3    50  -0.106997E+01  -0.545789E+00   0.567541E-03   0.000000E+00
     1     5    55  -0.106997E+01  -0.462455E+00   0.504701E-03   0.000000E+00
 
 
 SOLVING FOR HEAD 
                                                   Max.-Head-Change                         Max.-Flux-Residual
  Residual-Control   Outer-Iter.   Inner-Iter.     Column Row Layer    Maximum-Head-Change  Column Row Layer    Maximum-Flux-Residual          L2-NORM 
          0                 1           2            71    1     1      -0.1527206239E-01      18    4    1         0.9313340609E-03      0.1187697863E-01
          0                 2           2            71    1     1       0.1377540822E-02      71    1    1         0.9295507362E-04      0.1216820430E-02
          0                 3           2            71    7     1      -0.1164741142E-03      72    4    1         0.1235419326E-04      0.1212931434E-03
          0                 4           1            70    1     1       0.9010399261E-05      72    4    1        -0.1215024129E-05      0.1032608619E-04
          0                 5           1            70    1     1      -0.6210882625E-06      72    4    1         0.9198743456E-07      0.7454870397E-06

    ------------------------------------------------
       NWT REQUIRED            5 OUTER ITERATIONS 
       AND A TOTAL OF          8 INNER ITERATIONS.
    ------------------------------------------------

 NO OUTPUT CONTROL FOR STRESS PERIOD   19   TIME STEP   14
 
 WELLS WITH REDUCED PUMPING FOR STRESS PERIOD    19 TIME STEP    14
   LAY   ROW   COL         APPL.Q          ACT.Q        GW-HEAD       CELL-BOT
     1     3    50  -0.107002E+01  -0.545887E+00   0.567589E-03   0.000000E+00
     1     5    55  -0.107002E+01  -0.462553E+00   0.504752E-03   0.000000E+00
 
 
 SOLVING FOR HEAD 
                                                   Max.-Head-Change                         Max.-Flux-Residual
  Residual-Control   Outer-Iter.   Inner-Iter.     Column Row Layer    Maximum-Head-Change  Column Row Layer    Maximum-Flux-Residual          L2-NORM 
          0                 1           2            71    1     1      -0.1673256831E-01      96    4    1         0.1614288043E-02      0.1359632261E-01
          0                 2           2            71    7     1       0.1499537337E-02     100    4    1        -0.1266906107E-03      0.1251007956E-02
          0                 3           2            71    7     1      -0.1259476722E-03      72    4    1         0.1260563945E-04      0.1219801981E-03
          0                 4           1            70    1     1       0.9695022572E-05      72    4    1        -0.1257797782E-05      0.1040521688E-04
          0                 5           1            70    1     1      -0.6661740601E-06      72    4    1         0.9617365393E-07      0.7543018186E-06

    ------------------------------------------------
       NWT REQUIRED            5 OUTER ITERATIONS 
       AND A TOTAL OF          8 INNER ITERATIONS.
    ------------------------------------------------

 NO OUTPUT CONTROL FOR STRESS PERIOD   19   TIME STEP   15
 
 WELLS WITH REDUCED PUMPING FOR STRESS PERIOD    19 TIME STEP    15
   LAY   ROW   COL         APPL.Q          ACT.Q        GW-HEAD       CELL-BOT
     1     3    50  -0.107002E+01  -0.545957E+00   0.567638E-03   0.000000E+00
     1     5    55  -0.107002E+01  -0.462624E+00   0.504802E-03   0.000000E+00
 
 
 SOLVING FOR HEAD 
                                                   Max.-Head-Change                         Max.-Flux-Residual
  Residual-Control   Outer-Iter.   Inner-Iter.     Column Row Layer    Maximum-Head-Change  Column Row Layer    Maximum-Flux-Residual          L2-NORM 
          0                 1           2            71    1     1      -0.1832639684E-01      20    4    1         0.2157451746E-02      0.1315587523E-01
          0                 2           2            71    7     1       0.1631801791E-02      21    4    1        -0.1518488777E-03      0.1278762081E-02
          0                 3           2            71    7     1      -0.1361090126E-03      80    4    1         0.1312510794E-04      0.1255267821E-03
          0                 4           1            70    1     1       0.1041975562E-04      72    4    1        -0.1298500894E-05      0.1071664761E-04
          0                 5           1            70    1     1      -0.7133248391E-06      72    4    1         0.1002668135E-06      0.7783632853E-06

    ------------------------------------------------
       NWT REQUIRED            5 OUTER ITERATIONS 
       AND A TOTAL OF          8 INNER ITERATIONS.
    ------------------------------------------------

 NO OUTPUT CONTROL FOR STRESS PERIOD   19   TIME STEP   16
 
 WELLS WITH REDUCED PUMPING FOR STRESS PERIOD    19 TIME STEP    16
   LAY   ROW   COL         APPL.Q          ACT.Q        GW-HEAD       CELL-BOT
     1     3    50  -0.107002E+01  -0.546009E+00   0.567674E-03   0.000000E+00
     1     5    55  -0.107002E+01  -0.462675E+00   0.504838E-03   0.000000E+00
 
 
 SOLVING FOR HEAD 
                                                   Max.-Head-Change                         Max.-Flux-Residual
  Residual-Control   Outer-Iter.   Inner-Iter.     Column Row Layer    Maximum-Head-Change  Column Row Layer    Maximum-Flux-Residual          L2-NORM 
          0                 1           2            71    1     1      -0.1999363651E-01      22    4    1         0.1469202219E-02      0.1232337397E-01
          0                 2           2            71    7     1       0.1771976214E-02      76    4    1        -0.1479419179E-03      0.1227629141E-02
          0                 3           2            70    7     1      -0.1469413476E-03      76    4    1         0.1615702808E-04      0.1226566836E-03
          0                 4           1            70    1     1       0.1118741388E-04      76    4    1        -0.1411830606E-05      0.1052781121E-04
          0                 5           1            70    1     1      -0.7626296296E-06      74    4    1         0.1056680823E-06      0.7646538959E-06

    ------------------------------------------------
       NWT REQUIRED            5 OUTER ITERATIONS 
       AND A TOTAL OF          8 INNER ITERATIONS.
    ------------------------------------------------

 NO OUTPUT CONTROL FOR STRESS PERIOD   19   TIME STEP   17
 
 WELLS WITH REDUCED PUMPING FOR STRESS PERIOD    19 TIME STEP    17
   LAY   ROW   COL         APPL.Q          ACT.Q        GW-HEAD       CELL-BOT
     1     3    50  -0.106999E+01  -0.546046E+00   0.567714E-03   0.000000E+00
     1     5    55  -0.106999E+01  -0.462709E+00   0.504872E-03   0.000000E+00
 
 
 SOLVING FOR HEAD 
                                                   Max.-Head-Change                         Max.-Flux-Residual
  Residual-Control   Outer-Iter.   Inner-Iter.     Column Row Layer    Maximum-Head-Change  Column Row Layer    Maximum-Flux-Residual          L2-NORM 
          0                 1           2            96    4     1       0.2599845049E-01       1    4    1         0.2904161996E-02      0.1864057694E-01
          0                 2           2            69    1     1       0.1881205937E-02     100    4    1        -0.2487915631E-03      0.1304924243E-02
          0                 3           2            69    1     1      -0.1560670765E-03     100    4    1         0.2189452795E-04      0.1193328292E-03
          0                 4           1            69    1     1       0.1187296290E-04     100    4    1        -0.1711834500E-05      0.1033332374E-04
          0                 5           1            69    1     1      -0.8087348429E-06     100    4    1         0.1171517283E-06      0.7583299529E-06

    ------------------------------------------------
       NWT REQUIRED            5 OUTER ITERATIONS 
       AND A TOTAL OF          8 INNER ITERATIONS.
    ------------------------------------------------

 NO OUTPUT CONTROL FOR STRESS PERIOD   19   TIME STEP   18
 
 WELLS WITH REDUCED PUMPING FOR STRESS PERIOD    19 TIME STEP    18
   LAY   ROW   COL         APPL.Q          ACT.Q        GW-HEAD       CELL-BOT
     1     3    50  -0.106998E+01  -0.546073E+00   0.567734E-03   0.000000E+00
     1     5    55  -0.106998E+01  -0.462727E+00   0.504886E-03   0.000000E+00
 
 
 SOLVING FOR HEAD 
                                                   Max.-Head-Change                         Max.-Flux-Residual
  Residual-Control   Outer-Iter.   Inner-Iter.     Column Row Layer    Maximum-Head-Change  Column Row Layer    Maximum-Flux-Residual          L2-NORM 
          0                 1           2            66    1     1      -0.2126728606E-01      80    4    1         0.3418417521E-02      0.1574517463E-01
          0                 2           2            67    1     1       0.1901678315E-02      80    4    1        -0.2347154910E-03      0.1464613928E-02
          0                 3           2            67    1     1      -0.1591322619E-03      69    4    1         0.1761564676E-04      0.1470773127E-03
          0                 4           1            68    1     1       0.1220459107E-04      69    4    1        -0.1529435186E-05      0.1278939694E-04
          0                 5           1            68    1     1      -0.8373912292E-06       1    4    1        -0.1137683938E-06      0.9357294153E-06

    ------------------------------------------------
       NWT REQUIRED            5 OUTER ITERATIONS 
       AND A TOTAL OF          8 INNER ITERATIONS.
    ------------------------------------------------

 NO OUTPUT CONTROL FOR STRESS PERIOD   19   TIME STEP   19
 
 WELLS WITH REDUCED PUMPING FOR STRESS PERIOD    19 TIME STEP    19
   LAY   ROW   COL         APPL.Q          ACT.Q        GW-HEAD       CELL-BOT
     1     3    50  -0.106998E+01  -0.546089E+00   0.567747E-03   0.000000E+00
     1     5    55  -0.106998E+01  -0.462727E+00   0.504888E-03   0.000000E+00
 
 
 SOLVING FOR HEAD 
                                                   Max.-Head-Change                         Max.-Flux-Residual
  Residual-Control   Outer-Iter.   Inner-Iter.     Column Row Layer    Maximum-Head-Change  Column Row Layer    Maximum-Flux-Residual          L2-NORM 
          0                 1           2            27    4     1       0.2310358447E-01      27    4    1         0.3945933563E-02      0.1467747602E-01
          0                 2           2            65    1     1       0.1829923464E-02      27    4    1        -0.2495471105E-03      0.1454640305E-02
          0                 3           2            66    1     1      -0.1552239818E-03      77    4    1         0.1853281910E-04      0.1479084801E-03
          0                 4           1            66    1     1       0.1199291856E-04       1    4    1         0.1537077701E-05      0.1290100163E-04
          0                 5           1            66    1     1      -0.8260232137E-06       1    4    1        -0.1181714318E-06      0.9460059874E-06

    ------------------------------------------------
       NWT REQUIRED            5 OUTER ITERATIONS 
       AND A TOTAL OF          8 INNER ITERATIONS.
    ------------------------------------------------

 NO OUTPUT CONTROL FOR STRESS PERIOD   19   TIME STEP   20
 
 WELLS WITH REDUCED PUMPING FOR STRESS PERIOD    19 TIME STEP    20
   LAY   ROW   COL         APPL.Q          ACT.Q        GW-HEAD       CELL-BOT
     1     3    50  -0.107001E+01  -0.546095E+00   0.567738E-03   0.000000E+00
     1     5    55  -0.107001E+01  -0.462710E+00   0.504865E-03   0.000000E+00
 
 
 SOLVING FOR HEAD 
                                                   Max.-Head-Change                         Max.-Flux-Residual
  Residual-Control   Outer-Iter.   Inner-Iter.     Column Row Layer    Maximum-Head-Change  Column Row Layer    Maximum-Flux-Residual          L2-NORM 
          0                 1           2             1    1     1       0.2309953830E-01      75    4    1         0.3593374840E-02      0.1393932783E-01
          0                 2           2            94    7     1      -0.1869860484E-02      75    4    1        -0.2825252742E-03      0.1399192676E-02
          0                 3           2            70    7     1      -0.1483434786E-03      75    4    1         0.2071090479E-04      0.1432377881E-03
          0                 4           1            64    1     1       0.1112300027E-04       1    4    1         0.1564361757E-05      0.1256277819E-04
          0                 5           1            64    1     1      -0.7667112112E-06       1    4    1        -0.1208983136E-06      0.9239541588E-06

    ------------------------------------------------
       NWT REQUIRED            5 OUTER ITERATIONS 
       AND A TOTAL OF          8 INNER ITERATIONS.
    ------------------------------------------------

 NO OUTPUT CONTROL FOR STRESS PERIOD   19   TIME STEP   21
 
 WELLS WITH REDUCED PUMPING FOR STRESS PERIOD    19 TIME STEP    21
   LAY   ROW   COL         APPL.Q          ACT.Q        GW-HEAD       CELL-BOT
     1     3    50  -0.107000E+01  -0.546090E+00   0.567739E-03   0.000000E+00
     1     5    55  -0.107000E+01  -0.462672E+00   0.504842E-03   0.000000E+00
 
 
 SOLVING FOR HEAD 
                                                   Max.-Head-Change                         Max.-Flux-Residual
  Residual-Control   Outer-Iter.   Inner-Iter.     Column Row Layer    Maximum-Head-Change  Column Row Layer    Maximum-Flux-Residual          L2-NORM 
          0                 1           2             1    1     1       0.2530069610E-01      32    4    1         0.3894540871E-02      0.1337302000E-01
          0                 2           2            94    7     1      -0.1991541657E-02      73    4    1        -0.2604000088E-03      0.1341575720E-02
          0                 3           2            94    7     1       0.1544886790E-03      73    4    1         0.1960701373E-04      0.1382510730E-03
          0                 4           1            69    7     1       0.1145751780E-04       1    4    1         0.1590648363E-05      0.1220941325E-04
          0                 5           1            69    7     1      -0.7676882068E-06       2    4    1        -0.1238000387E-06      0.9015420852E-06

    ------------------------------------------------
       NWT REQUIRED            5 OUTER ITERATIONS 
       AND A TOTAL OF          8 INNER ITERATIONS.
    ------------------------------------------------

 NO OUTPUT CONTROL FOR STRESS PERIOD   19   TIME STEP   22
 
 WELLS WITH REDUCED PUMPING FOR STRESS PERIOD    19 TIME STEP    22
   LAY   ROW   COL         APPL.Q          ACT.Q        GW-HEAD       CELL-BOT
     1     3    50  -0.106999E+01  -0.546074E+00   0.567730E-03   0.000000E+00
     1     5    55  -0.106999E+01  -0.462613E+00   0.504803E-03   0.000000E+00
 
 
 SOLVING FOR HEAD 
                                                   Max.-Head-Change                         Max.-Flux-Residual
  Residual-Control   Outer-Iter.   Inner-Iter.     Column Row Layer    Maximum-Head-Change  Column Row Layer    Maximum-Flux-Residual          L2-NORM 
          0                 1           2             1    1     1       0.2768570826E-01      34    4    1         0.3597780062E-02      0.1277383807E-01
          0                 2           2             1    1     1      -0.2162282032E-02      71    4    1        -0.2491598976E-03      0.1282987817E-02
          0                 3           2            94    7     1       0.1616499508E-03      71    4    1         0.1895547910E-04      0.1336342706E-03
          0                 4           1            94    7     1      -0.1167985495E-04       1    4    1         0.1615121228E-05      0.1191187934E-04
          0                 5           1            94    7     1       0.7784041409E-06       2    4    1        -0.1265813765E-06      0.8842821045E-06

    ------------------------------------------------
       NWT REQUIRED            5 OUTER ITERATIONS 
       AND A TOTAL OF          8 INNER ITERATIONS.
    ------------------------------------------------

 NO OUTPUT CONTROL FOR STRESS PERIOD   19   TIME STEP   23
 
 WELLS WITH REDUCED PUMPING FOR STRESS PERIOD    19 TIME STEP    23
   LAY   ROW   COL         APPL.Q          ACT.Q        GW-HEAD       CELL-BOT
     1     3    50  -0.106999E+01  -0.546063E+00   0.567725E-03   0.000000E+00
     1     5    55  -0.106999E+01  -0.462543E+00   0.504756E-03   0.000000E+00
 
 
 SOLVING FOR HEAD 
                                                   Max.-Head-Change                         Max.-Flux-Residual
  Residual-Control   Outer-Iter.   Inner-Iter.     Column Row Layer    Maximum-Head-Change  Column Row Layer    Maximum-Flux-Residual          L2-NORM 
          0                 1           2             1    1     1       0.3028975632E-01      36    4    1         0.3360396268E-02      0.1235140429E-01
          0                 2           2             1    1     1      -0.2350777622E-02      69    4    1        -0.2473559160E-03      0.1235636104E-02
          0                 3           2             1    1     1       0.1719490070E-03      69    4    1         0.1856447532E-04      0.1298876177E-03
          0                 4           1            93    7     1      -0.1205480020E-04       1    4    1         0.1637372140E-05      0.1167929709E-04
          0                 5           1            94    7     1       0.7970505570E-06       2    4    1        -0.1291606964E-06      0.8711001533E-06

    ------------------------------------------------
       NWT REQUIRED            5 OUTER ITERATIONS 
       AND A TOTAL OF          8 INNER ITERATIONS.
    ------------------------------------------------

 NO OUTPUT CONTROL FOR STRESS PERIOD   19   TIME STEP   24
 
 WELLS WITH REDUCED PUMPING FOR STRESS PERIOD    19 TIME STEP    24
   LAY   ROW   COL         APPL.Q          ACT.Q        GW-HEAD       CELL-BOT
     1     3    50  -0.107000E+01  -0.546200E+00   0.567818E-03   0.000000E+00
     1     5    55  -0.107000E+01  -0.462594E+00   0.504789E-03   0.000000E+00
 
 
 SOLVING FOR HEAD 
                                                   Max.-Head-Change                         Max.-Flux-Residual
  Residual-Control   Outer-Iter.   Inner-Iter.     Column Row Layer    Maximum-Head-Change  Column Row Layer    Maximum-Flux-Residual          L2-NORM 
          0                 1           3             1    7     1       0.3313452721E-01      38    4    1         0.3302796972E-02      0.1217612901E-01
          0                 2           2             1    1     1      -0.2556418554E-02      67    4    1        -0.2543495645E-03      0.1198816127E-02
          0                 3           2             1    1     1       0.1850681993E-03      67    4    1         0.1865043892E-04      0.1271817483E-03
          0                 4           1             1    1     1      -0.1255538017E-04       1    4    1         0.1657307738E-05      0.1153031816E-04
          0                 5           1            93    7     1       0.8190554767E-06       2    4    1        -0.1315274716E-06      0.8633724509E-06

    ------------------------------------------------
       NWT REQUIRED            5 OUTER ITERATIONS 
       AND A TOTAL OF          9 INNER ITERATIONS.
    ------------------------------------------------

 NO OUTPUT CONTROL FOR STRESS PERIOD   19   TIME STEP   25
 
 WELLS WITH REDUCED PUMPING FOR STRESS PERIOD    19 TIME STEP    25
   LAY   ROW   COL         APPL.Q          ACT.Q        GW-HEAD       CELL-BOT
     1     3    50  -0.107001E+01  -0.546946E+00   0.568333E-03   0.000000E+00
     1     5    55  -0.107001E+01  -0.463263E+00   0.505251E-03   0.000000E+00
 
 
 SOLVING FOR HEAD 
                                                   Max.-Head-Change                         Max.-Flux-Residual
  Residual-Control   Outer-Iter.   Inner-Iter.     Column Row Layer    Maximum-Head-Change  Column Row Layer    Maximum-Flux-Residual          L2-NORM 
          0                 1           3            40    4     1       0.3757265299E-01      65    4    1         0.3468576104E-02      0.1198773381E-01
          0                 2           2             1    1     1      -0.2780433524E-02      65    4    1        -0.2703186895E-03      0.1180183522E-02
          0                 3           2             1    1     1       0.1992837735E-03      65    4    1         0.1914426731E-04      0.1259912626E-03
          0                 4           1             1    1     1      -0.1334757279E-04       1    4    1         0.1674868169E-05      0.1149727834E-04
          0                 5           1            93    7     1       0.8391194122E-06       2    4    1        -0.1336620201E-06      0.8638418453E-06

    ------------------------------------------------
       NWT REQUIRED            5 OUTER ITERATIONS 
       AND A TOTAL OF          9 INNER ITERATIONS.
    ------------------------------------------------

 NO OUTPUT CONTROL FOR STRESS PERIOD   19   TIME STEP   26
 
 WELLS WITH REDUCED PUMPING FOR STRESS PERIOD    19 TIME STEP    26
   LAY   ROW   COL         APPL.Q          ACT.Q        GW-HEAD       CELL-BOT
     1     3    50  -0.107001E+01  -0.547985E+00   0.569060E-03   0.000000E+00
     1     5    55  -0.107001E+01  -0.464117E+00   0.505848E-03   0.000000E+00
 
 
 SOLVING FOR HEAD 
                                                   Max.-Head-Change                         Max.-Flux-Residual
  Residual-Control   Outer-Iter.   Inner-Iter.     Column Row Layer    Maximum-Head-Change  Column Row Layer    Maximum-Flux-Residual          L2-NORM 
          0                 1           3            42    4     1       0.4538272936E-01      42    4    1         0.3780376305E-02      0.1184846512E-01
          0                 2           2             1    1     1      -0.3024449965E-02      63    4    1        -0.2796010673E-03      0.1171532225E-02
          0                 3           2             1    1     1       0.2146942816E-03      63    4    1         0.1888995737E-04      0.1257297666E-03
          0                 4           1             1    1     1      -0.1419617853E-04       1    4    1         0.1690062088E-05      0.1154797873E-04
          0                 5           1            92    7     1       0.8603205132E-06       2    4    1        -0.1355648642E-06      0.8708721827E-06

    ------------------------------------------------
       NWT REQUIRED            5 OUTER ITERATIONS 
       AND A TOTAL OF          9 INNER ITERATIONS.
    ------------------------------------------------

 NO OUTPUT CONTROL FOR STRESS PERIOD   19   TIME STEP   27
 
 WELLS WITH REDUCED PUMPING FOR STRESS PERIOD    19 TIME STEP    27
   LAY   ROW   COL         APPL.Q          ACT.Q        GW-HEAD       CELL-BOT
     1     3    50  -0.107000E+01  -0.548555E+00   0.569459E-03   0.000000E+00
     1     5    55  -0.107000E+01  -0.464523E+00   0.506132E-03   0.000000E+00
 
 
 SOLVING FOR HEAD 
                                                   Max.-Head-Change                         Max.-Flux-Residual
  Residual-Control   Outer-Iter.   Inner-Iter.     Column Row Layer    Maximum-Head-Change  Column Row Layer    Maximum-Flux-Residual          L2-NORM 
          0                 1           3            44    4     1       0.5176648492E-01      44    4    1         0.3744861045E-02      0.1167191454E-01
          0                 2           2             1    1     1      -0.3290089016E-02      44    4    1        -0.2256025381E-03      0.1155076056E-02
          0                 3           2             1    1     1       0.2313963774E-03       1    4    1        -0.1606979733E-04      0.1254224375E-03
          0                 4           1             1    1     1      -0.1510472681E-04       1    4    1         0.1702898579E-05      0.1161888508E-04
          0                 5           1             1    1     1       0.8963394621E-06       2    4    1        -0.1372299288E-06      0.8790278146E-06

    ------------------------------------------------
       NWT REQUIRED            5 OUTER ITERATIONS 
       AND A TOTAL OF          9 INNER ITERATIONS.
    ------------------------------------------------

 NO OUTPUT CONTROL FOR STRESS PERIOD   19   TIME STEP   28
 
 WELLS WITH REDUCED PUMPING FOR STRESS PERIOD    19 TIME STEP    28
   LAY   ROW   COL         APPL.Q          ACT.Q        GW-HEAD       CELL-BOT
     1     3    50  -0.107000E+01  -0.549036E+00   0.569795E-03   0.000000E+00
     1     5    55  -0.107000E+01  -0.464814E+00   0.506335E-03   0.000000E+00
 
 
 SOLVING FOR HEAD 
                                                   Max.-Head-Change                         Max.-Flux-Residual
  Residual-Control   Outer-Iter.   Inner-Iter.     Column Row Layer    Maximum-Head-Change  Column Row Layer    Maximum-Flux-Residual          L2-NORM 
          0                 1           3            45    4     1       0.5701514560E-01      60    4    1         0.3065561954E-02      0.1159348409E-01
          0                 2           2             1    1     1      -0.3579072211E-02      60    4    1        -0.1899566221E-03      0.1149468955E-02
          0                 3           2             1    1     1       0.2494875940E-03       1    4    1        -0.1608507629E-04      0.1261991756E-03
          0                 4           1             1    1     1      -0.1607718491E-04       1    4    1         0.1713402778E-05      0.1177838629E-04
          0                 5           1             1    1     1       0.9338777414E-06       2    4    1        -0.1386517710E-06      0.8933080058E-06

    ------------------------------------------------
       NWT REQUIRED            5 OUTER ITERATIONS 
       AND A TOTAL OF          9 INNER ITERATIONS.
    ------------------------------------------------

 NO OUTPUT CONTROL FOR STRESS PERIOD   19   TIME STEP   29
 
 WELLS WITH REDUCED PUMPING FOR STRESS PERIOD    19 TIME STEP    29
   LAY   ROW   COL         APPL.Q          ACT.Q        GW-HEAD       CELL-BOT
     1     3    50  -0.106999E+01  -0.549555E+00   0.570161E-03   0.000000E+00
     1     5    55  -0.106999E+01  -0.465093E+00   0.506532E-03   0.000000E+00
 
 
 SOLVING FOR HEAD 
                                                   Max.-Head-Change                         Max.-Flux-Residual
  Residual-Control   Outer-Iter.   Inner-Iter.     Column Row Layer    Maximum-Head-Change  Column Row Layer    Maximum-Flux-Residual          L2-NORM 
          0                 1           3            47    4     1       0.7483225217E-01      47    4    1         0.3944279527E-02      0.1193240286E-01
          0                 2           2            47    4     1      -0.4492270248E-02      58    4    1        -0.2405072162E-03      0.1167254136E-02
          0                 3           2             1    1     1       0.2690669660E-03       1    4    1        -0.1608500057E-04      0.1282385445E-03
          0                 4           1             1    1     1      -0.1711768772E-04       1    4    1         0.1721600405E-05      0.1201292702E-04
          0                 5           1            44    7     1       0.1110456517E-05       2    4    1        -0.1398273461E-06      0.9119571090E-06
          0                 6           1            44    7     1      -0.6894068454E-07       2    4    1         0.9008310542E-08      0.5771360664E-07

    ------------------------------------------------
       NWT REQUIRED            6 OUTER ITERATIONS 
       AND A TOTAL OF         10 INNER ITERATIONS.
    ------------------------------------------------

 NO OUTPUT CONTROL FOR STRESS PERIOD   19   TIME STEP   30
 
 WELLS WITH REDUCED PUMPING FOR STRESS PERIOD    19 TIME STEP    30
   LAY   ROW   COL         APPL.Q          ACT.Q        GW-HEAD       CELL-BOT
     1     3    50  -0.106999E+01  -0.550371E+00   0.570729E-03   0.000000E+00
     1     5    55  -0.106999E+01  -0.465577E+00   0.506869E-03   0.000000E+00
 



 STREAM LISTING     PERIOD     19   STEP       30

 LAYER ROW COL. STREAM  RCH.   FLOW INTO    STREAM     FLOW OUT OF   OVRLND.    DIRECT     STREAM      STREAM      STREAM     STREAM  STREAMBED   FLOW TO   CHNG. UNSAT. 
                SEG.NO.  NO.   STRM. RCH.    LOSS       STRM. RCH.   RUNOFF     PRECIP       ET         HEAD        DEPTH      WIDTH  CONDCTNC.   WAT. TAB.

   1    4    1     1     1    6.5560E+01  1.4322E-02   6.5546E+01  0.000E+00  0.000E+00  0.000E+00  1.45256E+02  5.406E+00  1.242E+01  2.425E-03  1.440E-02 -7.267E-05
   1    4    2     1     2    6.5546E+01  1.4320E-02   6.5531E+01  0.000E+00  0.000E+00  0.000E+00  1.44956E+02  5.406E+00  1.242E+01  2.425E-03  1.439E-02 -7.370E-05
   1    4    3     1     3    6.5531E+01  1.4318E-02   6.5517E+01  0.000E+00  0.000E+00  0.000E+00  1.44656E+02  5.406E+00  1.241E+01  2.424E-03  1.439E-02 -7.447E-05
   1    4    4     1     4    6.5517E+01  1.4315E-02   6.5503E+01  0.000E+00  0.000E+00  0.000E+00  1.44355E+02  5.405E+00  1.241E+01  2.424E-03  1.439E-02 -7.501E-05
   1    4    5     1     5    6.5503E+01  1.4313E-02   6.5488E+01  0.000E+00  0.000E+00  0.000E+00  1.44055E+02  5.405E+00  1.241E+01  2.424E-03  1.439E-02 -7.532E-05
   1    4    6     1     6    6.5488E+01  1.4311E-02   6.5474E+01  0.000E+00  0.000E+00  0.000E+00  1.43754E+02  5.404E+00  1.241E+01  2.424E-03  1.439E-02 -7.541E-05
   1    4    7     1     7    6.5474E+01  1.4308E-02   6.5460E+01  0.000E+00  0.000E+00  0.000E+00  1.43454E+02  5.404E+00  1.241E+01  2.424E-03  1.438E-02 -7.530E-05
   1    4    8     1     8    6.5460E+01  1.4306E-02   6.5445E+01  0.000E+00  0.000E+00  0.000E+00  1.43153E+02  5.403E+00  1.241E+01  2.423E-03  1.438E-02 -7.501E-05
   1    4    9     1     9    6.5445E+01  1.4304E-02   6.5431E+01  0.000E+00  0.000E+00  0.000E+00  1.42853E+02  5.403E+00  1.241E+01  2.423E-03  1.438E-02 -7.455E-05
   1    4   10     1    10    6.5431E+01  1.4301E-02   6.5417E+01  0.000E+00  0.000E+00  0.000E+00  1.42552E+02  5.402E+00  1.241E+01  2.423E-03  1.438E-02 -7.394E-05
   1    4   11     1    11    6.5417E+01  1.4299E-02   6.5403E+01  0.000E+00  0.000E+00  0.000E+00  1.42252E+02  5.402E+00  1.241E+01  2.423E-03  1.437E-02 -7.318E-05
   1    4   12     1    12    6.5403E+01  1.4297E-02   6.5388E+01  0.000E+00  0.000E+00  0.000E+00  1.41951E+02  5.401E+00  1.240E+01  2.423E-03  1.437E-02 -7.231E-05
   1    4   13     1    13    6.5388E+01  1.4294E-02   6.5374E+01  0.000E+00  0.000E+00  0.000E+00  1.41651E+02  5.401E+00  1.240E+01  2.422E-03  1.437E-02 -7.132E-05
   1    4   14     1    14    6.5374E+01  1.4292E-02   6.5360E+01  0.000E+00  0.000E+00  0.000E+00  1.41351E+02  5.401E+00  1.240E+01  2.422E-03  1.436E-02 -7.025E-05
   1    4   15     1    15    6.5360E+01  1.4290E-02   6.5345E+01  0.000E+00  0.000E+00  0.000E+00  1.41050E+02  5.400E+00  1.240E+01  2.422E-03  1.436E-02 -6.909E-05
   1    4   16     1    16    6.5345E+01  1.4287E-02   6.5331E+01  0.000E+00  0.000E+00  0.000E+00  1.40750E+02  5.400E+00  1.240E+01  2.422E-03  1.436E-02 -6.788E-05
   1    4   17     1    17    6.5331E+01  1.4285E-02   6.5317E+01  0.000E+00  0.000E+00  0.000E+00  1.40449E+02  5.399E+00  1.240E+01  2.422E-03  1.435E-02 -6.663E-05
   1    4   18     1    18    6.5317E+01  1.4283E-02   6.5303E+01  0.000E+00  0.000E+00  0.000E+00  1.40149E+02  5.399E+00  1.240E+01  2.421E-03  1.435E-02 -6.536E-05
   1    4   19     1    19    6.5303E+01  1.4280E-02   6.5288E+01  0.000E+00  0.000E+00  0.000E+00  1.39848E+02  5.398E+00  1.240E+01  2.421E-03  1.434E-02 -6.408E-05
   1    4   20     1    20    6.5288E+01  1.4278E-02   6.5274E+01  0.000E+00  0.000E+00  0.000E+00  1.39548E+02  5.398E+00  1.239E+01  2.421E-03  1.434E-02 -6.282E-05
   1    4   21     1    21    6.5274E+01  1.4276E-02   6.5260E+01  0.000E+00  0.000E+00  0.000E+00  1.39247E+02  5.397E+00  1.239E+01  2.421E-03  1.434E-02 -6.161E-05
   1    4   22     1    22    6.5260E+01  1.4274E-02   6.5245E+01  0.000E+00  0.000E+00  0.000E+00  1.38947E+02  5.397E+00  1.239E+01  2.420E-03  1.433E-02 -6.046E-05
   1    4   23     1    23    6.5245E+01  1.4271E-02   6.5231E+01  0.000E+00  0.000E+00  0.000E+00  1.38647E+02  5.397E+00  1.239E+01  2.420E-03  1.433E-02 -5.941E-05
   1    4   24     1    24    6.5231E+01  1.4269E-02   6.5217E+01  0.000E+00  0.000E+00  0.000E+00  1.38346E+02  5.396E+00  1.239E+01  2.420E-03  1.433E-02 -5.847E-05
   1    4   25     1    25    6.5217E+01  1.4267E-02   6.5203E+01  0.000E+00  0.000E+00  0.000E+00  1.38046E+02  5.396E+00  1.239E+01  2.420E-03  1.432E-02 -5.768E-05
   1    4   26     1    26    6.5203E+01  1.4264E-02   6.5188E+01  0.000E+00  0.000E+00  0.000E+00  1.37745E+02  5.395E+00  1.239E+01  2.420E-03  1.432E-02 -5.706E-05
   1    4   27     1    27    6.5188E+01  1.4262E-02   6.5174E+01  0.000E+00  0.000E+00  0.000E+00  1.37445E+02  5.395E+00  1.239E+01  2.419E-03  1.432E-02 -5.665E-05
   1    4   28     1    28    6.5174E+01  1.4260E-02   6.5160E+01  0.000E+00  0.000E+00  0.000E+00  1.37144E+02  5.394E+00  1.238E+01  2.419E-03  1.432E-02 -5.646E-05
   1    4   29     1    29    6.5160E+01  1.4257E-02   6.5146E+01  0.000E+00  0.000E+00  0.000E+00  1.36844E+02  5.394E+00  1.238E+01  2.419E-03  1.431E-02 -5.653E-05
   1    4   30     1    30    6.5146E+01  1.4255E-02   6.5131E+01  0.000E+00  0.000E+00  0.000E+00  1.36543E+02  5.393E+00  1.238E+01  2.419E-03  1.431E-02 -5.688E-05
   1    4   31     1    31    6.5131E+01  1.4253E-02   6.5117E+01  0.000E+00  0.000E+00  0.000E+00  1.36243E+02  5.393E+00  1.238E+01  2.419E-03  1.431E-02 -5.754E-05
   1    4   32     1    32    6.5117E+01  1.4250E-02   6.5103E+01  0.000E+00  0.000E+00  0.000E+00  1.35942E+02  5.392E+00  1.238E+01  2.418E-03  1.431E-02 -5.854E-05
   1    4   33     1    33    6.5103E+01  1.4248E-02   6.5089E+01  0.000E+00  0.000E+00  0.000E+00  1.35642E+02  5.392E+00  1.238E+01  2.418E-03  1.431E-02 -5.505E-05
   1    4   34     1    34    6.5089E+01  1.4246E-02   6.5074E+01  0.000E+00  0.000E+00  0.000E+00  1.35342E+02  5.392E+00  1.238E+01  2.418E-03  1.431E-02 -5.679E-05
   1    4   35     1    35    6.5074E+01  1.4243E-02   6.5060E+01  0.000E+00  0.000E+00  0.000E+00  1.35041E+02  5.391E+00  1.238E+01  2.418E-03  1.431E-02 -5.892E-05
   1    4   36     1    36    6.5060E+01  1.4241E-02   6.5046E+01  0.000E+00  0.000E+00  0.000E+00  1.34741E+02  5.391E+00  1.238E+01  2.418E-03  1.431E-02 -6.626E-05
   1    4   37     1    37    6.5046E+01  1.4239E-02   6.5032E+01  0.000E+00  0.000E+00  0.000E+00  1.34440E+02  5.390E+00  1.237E+01  2.417E-03  1.431E-02 -6.797E-05
   1    4   38     1    38    6.5032E+01  1.4236E-02   6.5017E+01  0.000E+00  0.000E+00  0.000E+00  1.34140E+02  5.390E+00  1.237E+01  2.417E-03  1.431E-02 -7.011E-05
   1    4   39     1    39    6.5017E+01  1.4234E-02   6.5003E+01  0.000E+00  0.000E+00  0.000E+00  1.33839E+02  5.389E+00  1.237E+01  2.417E-03  1.431E-02 -7.271E-05
   1    4   40     1    40    6.5003E+01  1.4232E-02   6.4989E+01  0.000E+00  0.000E+00  0.000E+00  1.33539E+02  5.389E+00  1.237E+01  2.417E-03  1.431E-02 -7.577E-05
   1    4   41     1    41    6.4989E+01  1.4229E-02   6.4975E+01  0.000E+00  0.000E+00  0.000E+00  1.33238E+02  5.388E+00  1.237E+01  2.416E-03  1.431E-02 -7.930E-05
   1    4   42     1    42    6.4975E+01  1.4227E-02   6.4960E+01  0.000E+00  0.000E+00  0.000E+00  1.32938E+02  5.388E+00  1.237E+01  2.416E-03  1.431E-02 -8.338E-05
   1    4   43     1    43    6.4960E+01  1.4225E-02   6.4946E+01  0.000E+00  0.000E+00  0.000E+00  1.32638E+02  5.388E+00  1.237E+01  2.416E-03  1.431E-02 -8.824E-05
   1    4   44     1    44    6.4946E+01  1.4222E-02   6.4932E+01  0.000E+00  0.000E+00  0.000E+00  1.32337E+02  5.387E+00  1.237E+01  2.416E-03  1.432E-02 -9.428E-05
   1    4   45     1    45    6.4932E+01  1.4220E-02   6.4918E+01  0.000E+00  0.000E+00  0.000E+00  1.32037E+02  5.387E+00  1.236E+01  2.416E-03  1.432E-02 -1.039E-04
   1    4   46     1    46    6.4918E+01  1.4218E-02   6.4904E+01  0.000E+00  0.000E+00  0.000E+00  1.31736E+02  5.386E+00  1.236E+01  2.415E-03  1.435E-02 -1.306E-04
   1    4   47     1    47    6.4904E+01  1.4215E-02   6.4889E+01  0.000E+00  0.000E+00  0.000E+00  1.31436E+02  5.386E+00  1.236E+01  2.415E-03  1.439E-02 -1.718E-04
   1    4   48     1    48    6.4889E+01  1.4213E-02   6.4875E+01  0.000E+00  0.000E+00  0.000E+00  1.31135E+02  5.385E+00  1.236E+01  2.415E-03  1.164E-02  2.577E-03
   1    4   49     1    49    6.4875E+01  1.4211E-02   6.4861E+01  0.000E+00  0.000E+00  0.000E+00  1.30835E+02  5.385E+00  1.236E+01  2.415E-03  1.028E-02  3.931E-03
   1    4   50     1    50    6.4861E+01  1.4208E-02   6.4847E+01  0.000E+00  0.000E+00  0.000E+00  1.30534E+02  5.384E+00  1.236E+01  2.415E-03  1.026E-02  3.949E-03
   1    4   51     1    51    6.4847E+01  1.4206E-02   6.4833E+01  0.000E+00  0.000E+00  0.000E+00  1.30234E+02  5.384E+00  1.236E+01  2.414E-03  1.027E-02  3.936E-03
   1    4   52     1    52    6.4833E+01  1.4204E-02   6.4818E+01  0.000E+00  0.000E+00  0.000E+00  1.29933E+02  5.383E+00  1.236E+01  2.414E-03  1.028E-02  3.927E-03
   1    4   53     1    53    6.4818E+01  1.4201E-02   6.4804E+01  0.000E+00  0.000E+00  0.000E+00  1.29633E+02  5.383E+00  1.235E+01  2.414E-03  1.028E-02  3.925E-03
   1    4   54     1    54    6.4804E+01  1.4199E-02   6.4790E+01  0.000E+00  0.000E+00  0.000E+00  1.29333E+02  5.383E+00  1.235E+01  2.414E-03  1.027E-02  3.933E-03
   1    4   55     1    55    6.4790E+01  1.4197E-02   6.4776E+01  0.000E+00  0.000E+00  0.000E+00  1.29032E+02  5.382E+00  1.235E+01  2.414E-03  1.025E-02  3.947E-03
   1    4   56     1    56    6.4776E+01  1.4194E-02   6.4762E+01  0.000E+00  0.000E+00  0.000E+00  1.28732E+02  5.382E+00  1.235E+01  2.413E-03  1.026E-02  3.936E-03
   1    4   57     1    57    6.4762E+01  1.4192E-02   6.4747E+01  0.000E+00  0.000E+00  0.000E+00  1.28431E+02  5.381E+00  1.235E+01  2.413E-03  1.139E-02  2.806E-03
   1    4   58     1    58    6.4747E+01  1.4190E-02   6.4733E+01  0.000E+00  0.000E+00  0.000E+00  1.28131E+02  5.381E+00  1.235E+01  2.413E-03  1.426E-02 -6.837E-05
   1    4   59     1    59    6.4733E+01  1.4188E-02   6.4719E+01  0.000E+00  0.000E+00  0.000E+00  1.27830E+02  5.380E+00  1.235E+01  2.413E-03  1.429E-02 -1.043E-04
   1    4   60     1    60    6.4719E+01  1.4185E-02   6.4705E+01  0.000E+00  0.000E+00  0.000E+00  1.27530E+02  5.380E+00  1.235E+01  2.412E-03  1.425E-02 -6.666E-05
   1    4   61     1    61    6.4705E+01  1.4183E-02   6.4691E+01  0.000E+00  0.000E+00  0.000E+00  1.27229E+02  5.379E+00  1.235E+01  2.412E-03  1.423E-02 -5.162E-05
   1    4   62     1    62    6.4691E+01  1.4181E-02   6.4676E+01  0.000E+00  0.000E+00  0.000E+00  1.26929E+02  5.379E+00  1.234E+01  2.412E-03  1.422E-02 -4.050E-05
   1    4   63     1    63    6.4676E+01  1.4178E-02   6.4662E+01  0.000E+00  0.000E+00  0.000E+00  1.26629E+02  5.379E+00  1.234E+01  2.412E-03  1.421E-02 -3.140E-05
   1    4   64     1    64    6.4662E+01  1.4176E-02   6.4648E+01  0.000E+00  0.000E+00  0.000E+00  1.26328E+02  5.378E+00  1.234E+01  2.412E-03  1.420E-02 -2.374E-05
   1    4   65     1    65    6.4648E+01  1.4174E-02   6.4634E+01  0.000E+00  0.000E+00  0.000E+00  1.26028E+02  5.378E+00  1.234E+01  2.411E-03  1.419E-02 -1.720E-05
   1    4   66     1    66    6.4634E+01  1.4171E-02   6.4620E+01  0.000E+00  0.000E+00  0.000E+00  1.25727E+02  5.377E+00  1.234E+01  2.411E-03  1.418E-02 -1.173E-05
   1    4   67     1    67    6.4620E+01  1.4169E-02   6.4606E+01  0.000E+00  0.000E+00  0.000E+00  1.25427E+02  5.377E+00  1.234E+01  2.411E-03  1.418E-02 -7.278E-06
   1    4   68     1    68    6.4606E+01  1.4167E-02   6.4591E+01  0.000E+00  0.000E+00  0.000E+00  1.25126E+02  5.376E+00  1.234E+01  2.411E-03  1.417E-02 -3.823E-06
   1    4   69     1    69    6.4591E+01  1.4164E-02   6.4577E+01  0.000E+00  0.000E+00  0.000E+00  1.24826E+02  5.376E+00  1.234E+01  2.411E-03  1.417E-02 -1.344E-06
   1    4   70     1    70    6.4577E+01  1.4162E-02   6.4563E+01  0.000E+00  0.000E+00  0.000E+00  1.24525E+02  5.375E+00  1.233E+01  2.410E-03  0.000E+00  0.000E+00
   1    4   71     1    71    6.4563E+01  1.4160E-02   6.4549E+01  0.000E+00  0.000E+00  0.000E+00  1.24225E+02  5.375E+00  1.233E+01  2.410E-03  1.416E-02  8.238E-07
   1    4   72     1    72    6.4549E+01  1.4157E-02   6.4535E+01  0.000E+00  0.000E+00  0.000E+00  1.23924E+02  5.374E+00  1.233E+01  2.410E-03  1.416E-02  5.807E-07
   1    4   73     1    73    6.4535E+01  1.4155E-02   6.4521E+01  0.000E+00  0.000E+00  0.000E+00  1.23624E+02  5.374E+00  1.233E+01  2.410E-03  1.416E-02 -5.020E-07
   1    4   74     1    74    6.4521E+01  1.4153E-02   6.4506E+01  0.000E+00  0.000E+00  0.000E+00  1.23324E+02  5.374E+00  1.233E+01  2.410E-03  1.416E-02 -2.376E-06
   1    4   75     1    75    6.4506E+01  1.4150E-02   6.4492E+01  0.000E+00  0.000E+00  0.000E+00  1.23023E+02  5.373E+00  1.233E+01  2.409E-03  1.416E-02 -4.999E-06
   1    4   76     1    76    6.4492E+01  1.4148E-02   6.4478E+01  0.000E+00  0.000E+00  0.000E+00  1.22723E+02  5.373E+00  1.233E+01  2.409E-03  1.416E-02 -8.331E-06
   1    4   77     1    77    6.4478E+01  1.4146E-02   6.4464E+01  0.000E+00  0.000E+00  0.000E+00  1.22422E+02  5.372E+00  1.233E+01  2.409E-03  1.416E-02 -1.231E-05
   1    4   78     1    78    6.4464E+01  1.4143E-02   6.4450E+01  0.000E+00  0.000E+00  0.000E+00  1.22122E+02  5.372E+00  1.232E+01  2.409E-03  1.416E-02 -1.690E-05
   1    4   79     1    79    6.4450E+01  1.4141E-02   6.4436E+01  0.000E+00  0.000E+00  0.000E+00  1.21821E+02  5.371E+00  1.232E+01  2.409E-03  1.416E-02 -2.203E-05
   1    4   80     1    80    6.4436E+01  1.4139E-02   6.4422E+01  0.000E+00  0.000E+00  0.000E+00  1.21521E+02  5.371E+00  1.232E+01  2.408E-03  1.417E-02 -2.763E-05
   1    4   81     1    81    6.4422E+01  1.4137E-02   6.4407E+01  0.000E+00  0.000E+00  0.000E+00  1.21220E+02  5.370E+00  1.232E+01  2.408E-03  1.417E-02 -3.363E-05
   1    4   82     1    82    6.4407E+01  1.4134E-02   6.4393E+01  0.000E+00  0.000E+00  0.000E+00  1.20920E+02  5.370E+00  1.232E+01  2.408E-03  1.417E-02 -3.994E-05
   1    4   83     1    83    6.4393E+01  1.4132E-02   6.4379E+01  0.000E+00  0.000E+00  0.000E+00  1.20620E+02  5.370E+00  1.232E+01  2.408E-03  1.418E-02 -4.646E-05
   1    4   84     1    84    6.4379E+01  1.4130E-02   6.4365E+01  0.000E+00  0.000E+00  0.000E+00  1.20319E+02  5.369E+00  1.232E+01  2.407E-03  1.418E-02 -5.307E-05
   1    4   85     1    85    6.4365E+01  1.4127E-02   6.4351E+01  0.000E+00  0.000E+00  0.000E+00  1.20019E+02  5.369E+00  1.232E+01  2.407E-03  1.419E-02 -5.962E-05
   1    4   86     1    86    6.4351E+01  1.4125E-02   6.4337E+01  0.000E+00  0.000E+00  0.000E+00  1.19718E+02  5.368E+00  1.232E+01  2.407E-03  1.419E-02 -6.595E-05
   1    4   87     1    87    6.4337E+01  1.4123E-02   6.4323E+01  0.000E+00  0.000E+00  0.000E+00  1.19418E+02  5.368E+00  1.231E+01  2.407E-03  1.419E-02 -7.187E-05
   1    4   88     1    88    6.4323E+01  1.4120E-02   6.4309E+01  0.000E+00  0.000E+00  0.000E+00  1.19117E+02  5.367E+00  1.231E+01  2.407E-03  1.420E-02 -7.713E-05
   1    4   89     1    89    6.4309E+01  1.4118E-02   6.4294E+01  0.000E+00  0.000E+00  0.000E+00  1.18817E+02  5.367E+00  1.231E+01  2.406E-03  1.420E-02 -8.149E-05
   1    4   90     1    90    6.4294E+01  1.4116E-02   6.4280E+01  0.000E+00  0.000E+00  0.000E+00  1.18516E+02  5.366E+00  1.231E+01  2.406E-03  1.420E-02 -8.464E-05
   1    4   91     1    91    6.4280E+01  1.4113E-02   6.4266E+01  0.000E+00  0.000E+00  0.000E+00  1.18216E+02  5.366E+00  1.231E+01  2.406E-03  1.420E-02 -8.627E-05
   1    4   92     1    92    6.4266E+01  1.4111E-02   6.4252E+01  0.000E+00  0.000E+00  0.000E+00  1.17915E+02  5.365E+00  1.231E+01  2.406E-03  1.420E-02 -8.605E-05
   1    4   93     1    93    6.4252E+01  1.4109E-02   6.4238E+01  0.000E+00  0.000E+00  0.000E+00  1.17615E+02  5.365E+00  1.231E+01  2.406E-03  1.419E-02 -8.368E-05
   1    4   94     1    94    6.4238E+01  1.4106E-02   6.4224E+01  0.000E+00  0.000E+00  0.000E+00  1.17315E+02  5.365E+00  1.231E+01  2.405E-03  1.419E-02 -7.889E-05
   1    4   95     1    95    6.4224E+01  1.4104E-02   6.4210E+01  0.000E+00  0.000E+00  0.000E+00  1.17014E+02  5.364E+00  1.230E+01  2.405E-03  1.418E-02 -7.151E-05
   1    4   96     1    96    6.4210E+01  1.4102E-02   6.4196E+01  0.000E+00  0.000E+00  0.000E+00  1.16714E+02  5.364E+00  1.230E+01  2.405E-03  1.416E-02 -6.148E-05
   1    4   97     1    97    6.4196E+01  1.4100E-02   6.4182E+01  0.000E+00  0.000E+00  0.000E+00  1.16413E+02  5.363E+00  1.230E+01  2.405E-03  1.415E-02 -4.893E-05
   1    4   98     1    98    6.4182E+01  1.4097E-02   6.4167E+01  0.000E+00  0.000E+00  0.000E+00  1.16113E+02  5.363E+00  1.230E+01  2.405E-03  1.413E-02 -3.417E-05
   1    4   99     1    99    6.4167E+01  1.4095E-02   6.4153E+01  0.000E+00  0.000E+00  0.000E+00  1.15812E+02  5.362E+00  1.230E+01  2.404E-03  1.411E-02 -1.767E-05
   1    4  100     1   100    6.4153E+01  1.4093E-02   6.4139E+01  0.000E+00  0.000E+00  0.000E+00  1.15512E+02  5.362E+00  1.230E+01  2.404E-03  0.000E+00  0.000E+00



1
  VOLUMETRIC BUDGET FOR UNSATURATED ZONE BENEATH STREAMS AT END OF TIME STEP    30 STRESS PERIOD  19
  ------------------------------------------------------------------------------------------------

    CUMULATIVE VOLUMES             L**3    RATES FOR THIS TIME STEP         L**3/T
    ------------------                     ------------------------


          STREAM LOSS =     22972682.0000            STREAM LOSS =            1.4207
    CHANGE IN STORAGE =      3266295.5000      CHANGE IN STORAGE =        3.1763E-02
       RECHARGE TO GW =     19711222.0000         RECHARGE TO GW =            1.3890

             TOTAL IN =     22972682.0000               TOTAL IN =            1.4207

            TOTAL OUT =     22977518.0000              TOTAL OUT =            1.4207

             IN - OUT =        -4836.0000               IN - OUT =       -1.4544E-05

  PERCENT DISCREPANCY =           -0.01      PERCENT DISCREPANCY =            -0.00



1
  VOLUMETRIC BUDGET FOR ENTIRE MODEL AT END OF TIME STEP   30, STRESS PERIOD  19
  ------------------------------------------------------------------------------

     CUMULATIVE VOLUMES      L**3       RATES FOR THIS TIME STEP      L**3/T
     ------------------                 ------------------------

           IN:                                      IN:
           ---                                      ---
             STORAGE     =    82003440.0000               STORAGE     =       6.5167E-05
       CONSTANT HEAD     =           0.0000         CONSTANT HEAD     =           0.0000
               WELLS     =           0.0000                 WELLS     =           0.0000
     HEAD DEP BOUNDS     =           0.0000       HEAD DEP BOUNDS     =           0.0000
      STREAM LEAKAGE     =    19711232.0000        STREAM LEAKAGE     =           1.3890

                TOTAL IN =   101714672.0000                  TOTAL IN =           1.3891

          OUT:                                     OUT:
          ----                                     ----
             STORAGE     =     2839625.7500               STORAGE     =           0.2420
       CONSTANT HEAD     =           0.0000         CONSTANT HEAD     =           0.0000
               WELLS     =    83537168.0000                 WELLS     =           1.0159
     HEAD DEP BOUNDS     =    15337866.0000       HEAD DEP BOUNDS     =           0.1311
      STREAM LEAKAGE     =           0.0000        STREAM LEAKAGE     =           0.0000

               TOTAL OUT =   101714656.0000                 TOTAL OUT =           1.3891

                IN - OUT =          16.0000                  IN - OUT =       1.1921E-07

     PERCENT DISCREPANCY =           0.00         PERCENT DISCREPANCY =           0.00






         TIME SUMMARY AT END OF TIME STEP   30 IN STRESS PERIOD   19
                    SECONDS     MINUTES      HOURS       DAYS        YEARS
                    -----------------------------------------------------------
   TIME STEP LENGTH 2.49961E+05  4166.0      69.434      2.8931     7.92080E-03
 STRESS PERIOD TIME 2.59200E+06  43200.      720.00      30.000     8.21355E-02
         TOTAL TIME 4.92480E+07 8.20800E+05  13680.      570.00      1.5606    
1
1
                            STRESS PERIOD NO.   20, LENGTH =   2592000.    
                            -----------------------------------------------

                              NUMBER OF TIME STEPS =    30

                               MULTIPLIER FOR DELT =     1.100

                            INITIAL TIME STEP SIZE =   15757.40    

 REUSING NON-PARAMETER WELLS FROM LAST STRESS PERIOD

      1 WELL 

 REUSING NON-PARAMETER GHB CELLS FROM LAST STRESS PERIOD

      7 GHB CELLS



 CLASSIFICATION & COUNT OF STREAM SEGMENTS BASED ON SOURCE OF INFLOW:

                HEADWATER     DIVERSION     RECEIVES TRIBUTARY FLOW
                ---------     ---------     -----------------------
                     1              0               0



                    INPUT DATA FOR EACH STREAM SEGMENT
 ---------------------------------------------------------------------------------------------

 SEGMENT    SEG.     INFLOW   OVERLAND   STREAM    STREAM   ICALC  OUTFLOW  DIVERSION PRIORITY
    NO.    LENGTH     RATE     RUNOFF      ET       PPT.    METH.  TO SEG.  FROM SEG.    NO.

      1  2.000E+04 3.556E+01 0.000E+00 0.000E+00 0.000E+00    2        0        0        0


         STREAMBED PROPERTIES AND STREAM DIMENSIONS

 SEGMENT     BED HYD. COND.      BED THICKNESS     ELEV.-TOP OF BED     WIDTH OF STREAM     DEPTH OF STREAM    STREAM ROUGHNESS
    No.     UPPER     LOWER     UPPER     LOWER     UPPER     LOWER     UPPER     LOWER     UPPER     LOWER   CHANNEL      BANK

     1  3.500E-07 3.500E-07                                                                                 3.000E-02 4.000E-02

  EIGHT POINT CROSS-SECTION DATA FOR SEGMENTS WITH ICALC = 2
    X VALUES X VALUES START FROM LEFT SIDE LOOKING DOWNSTREAM

     SEGMENT NO.        X1        X2        X3        X4        X5        X6        X7        X8
            1      0.000E+00 2.000E+00 4.000E+00 6.000E+00 8.000E+00 1.000E+01 1.200E+01 1.400E+01

    Z VALUES ARE RELATIVE TO STREAMBED ELEVATION

     SEGMENT NO.          Z1        Z2        Z3        Z4        Z5        Z6        Z7        Z8
            1      6.000E+00 4.500E+00 3.500E+00 0.000E+00 3.000E-01 3.500E+00 4.500E+00 6.000E+00



 
 SOLVING FOR HEAD 
                                                   Max.-Head-Change                         Max.-Flux-Residual
  Residual-Control   Outer-Iter.   Inner-Iter.     Column Row Layer    Maximum-Head-Change  Column Row Layer    Maximum-Flux-Residual          L2-NORM 
          0                 1           2            57    4     1       0.1364172042E-01      50    3    1        -0.2001831876E+00      0.2624427777E+00
          0                 2           2            57    4     1       0.8632520002E-03      50    3    1         0.1789405620E-01      0.2174766991E-01
          0                 3           1            57    4     1       0.5510798145E-04      50    3    1        -0.1675858306E-02      0.2037924648E-02
          0                 4           1            57    4     1       0.3535677241E-05      50    3    1         0.1337194166E-03      0.1625931408E-03
          0                 5           1            57    4     1       0.2275965982E-06      50    3    1        -0.9403403106E-05      0.1143365382E-04

    ------------------------------------------------
       NWT REQUIRED            5 OUTER ITERATIONS 
       AND A TOTAL OF          7 INNER ITERATIONS.
    ------------------------------------------------

 NO OUTPUT CONTROL FOR STRESS PERIOD   20   TIME STEP    1
 
 WELLS WITH REDUCED PUMPING FOR STRESS PERIOD    20 TIME STEP     1
   LAY   ROW   COL         APPL.Q          ACT.Q        GW-HEAD       CELL-BOT
     1     3    50  -0.145918E+01  -0.550441E+00   0.467488E-03   0.000000E+00
     1     5    55  -0.145918E+01  -0.465622E+00   0.418373E-03   0.000000E+00
 
 
 SOLVING FOR HEAD 
                                                   Max.-Head-Change                         Max.-Flux-Residual
  Residual-Control   Outer-Iter.   Inner-Iter.     Column Row Layer    Maximum-Head-Change  Column Row Layer    Maximum-Flux-Residual          L2-NORM 
          0                 1           2            57    4     1       0.8880976241E-02      57    4    1         0.1655889727E-02      0.1077009249E-01
          0                 2           2            57    4     1       0.5207038511E-03      57    4    1         0.1460096382E-03      0.1160821592E-02
          0                 3           1            48    5     1       0.3638919258E-04      48    3    1         0.8680602242E-05      0.1011844955E-03
          0                 4           1             1    1     1      -0.2386195378E-05      48    3    1        -0.6670646671E-06      0.8175927138E-05
          0                 5           1            48    5     1       0.1897500819E-06      48    3    1         0.4916740082E-07      0.5705245410E-06

    ------------------------------------------------
       NWT REQUIRED            5 OUTER ITERATIONS 
       AND A TOTAL OF          7 INNER ITERATIONS.
    ------------------------------------------------

 NO OUTPUT CONTROL FOR STRESS PERIOD   20   TIME STEP    2
 
 WELLS WITH REDUCED PUMPING FOR STRESS PERIOD    20 TIME STEP     2
   LAY   ROW   COL         APPL.Q          ACT.Q        GW-HEAD       CELL-BOT
     1     3    50  -0.145990E+01  -0.550496E+00   0.467373E-03   0.000000E+00
     1     5    55  -0.145990E+01  -0.465655E+00   0.418266E-03   0.000000E+00
 
 
 SOLVING FOR HEAD 
                                                   Max.-Head-Change                         Max.-Flux-Residual
  Residual-Control   Outer-Iter.   Inner-Iter.     Column Row Layer    Maximum-Head-Change  Column Row Layer    Maximum-Flux-Residual          L2-NORM 
          0                 1           2            48    4     1       0.6577997715E-02      48    3    1         0.1020689777E-02      0.1065857972E-01
          0                 2           2             1    7     1      -0.3685639202E-03      48    4    1         0.1160082829E-03      0.1158594160E-02
          0                 3           1            48    3     1       0.4002735231E-04      48    3    1         0.9373617228E-05      0.1026820455E-03
          0                 4           1            48    5     1      -0.2705167771E-05      48    3    1        -0.7326234837E-06      0.8277707556E-05
          0                 5           1            48    5     1       0.2112941760E-06      48    3    1         0.5283418547E-07      0.5793616432E-06

    ------------------------------------------------
       NWT REQUIRED            5 OUTER ITERATIONS 
       AND A TOTAL OF          7 INNER ITERATIONS.
    ------------------------------------------------

 NO OUTPUT CONTROL FOR STRESS PERIOD   20   TIME STEP    3
 
 WELLS WITH REDUCED PUMPING FOR STRESS PERIOD    20 TIME STEP     3
   LAY   ROW   COL         APPL.Q          ACT.Q        GW-HEAD       CELL-BOT
     1     3    50  -0.146012E+01  -0.550572E+00   0.467370E-03   0.000000E+00
     1     5    55  -0.146012E+01  -0.465704E+00   0.418256E-03   0.000000E+00
 
 
 SOLVING FOR HEAD 
                                                   Max.-Head-Change                         Max.-Flux-Residual
  Residual-Control   Outer-Iter.   Inner-Iter.     Column Row Layer    Maximum-Head-Change  Column Row Layer    Maximum-Flux-Residual          L2-NORM 
          0                 1           2            48    4     1       0.5670864198E-02      48    3    1         0.9710391821E-03      0.1061043226E-01
          0                 2           2             1    7     1      -0.4018424753E-03      48    4    1         0.9956490582E-04      0.1155913079E-02
          0                 3           1            48    5     1       0.4048346577E-04       1    4    1        -0.8889250402E-05      0.1039281746E-03
          0                 4           1            48    5     1      -0.2869070452E-05       1    4    1         0.7150038499E-06      0.8365516066E-05
          0                 5           1            48    5     1       0.2147905956E-06       1    4    1        -0.5024573824E-07      0.5865428335E-06

    ------------------------------------------------
       NWT REQUIRED            5 OUTER ITERATIONS 
       AND A TOTAL OF          7 INNER ITERATIONS.
    ------------------------------------------------

 NO OUTPUT CONTROL FOR STRESS PERIOD   20   TIME STEP    4
 
 WELLS WITH REDUCED PUMPING FOR STRESS PERIOD    20 TIME STEP     4
   LAY   ROW   COL         APPL.Q          ACT.Q        GW-HEAD       CELL-BOT
     1     3    50  -0.145992E+01  -0.550660E+00   0.467455E-03   0.000000E+00
     1     5    55  -0.145992E+01  -0.465762E+00   0.418321E-03   0.000000E+00
 
 
 SOLVING FOR HEAD 
                                                   Max.-Head-Change                         Max.-Flux-Residual
  Residual-Control   Outer-Iter.   Inner-Iter.     Column Row Layer    Maximum-Head-Change  Column Row Layer    Maximum-Flux-Residual          L2-NORM 
          0                 1           2            48    5     1       0.5487075401E-02      48    3    1         0.8864958095E-03      0.1057321067E-01
          0                 2           2             1    7     1      -0.4379408904E-03      48    4    1         0.8880005732E-04      0.1152935013E-02
          0                 3           1            48    5     1       0.3994775095E-04       1    4    1        -0.9373777441E-05      0.1050972364E-03
          0                 4           1             1    1     1      -0.3048450029E-05       1    4    1         0.7614570450E-06      0.8457129774E-05
          0                 5           1            48    5     1       0.2126082865E-06       1    4    1        -0.5350027976E-07      0.5935735654E-06

    ------------------------------------------------
       NWT REQUIRED            5 OUTER ITERATIONS 
       AND A TOTAL OF          7 INNER ITERATIONS.
    ------------------------------------------------

 NO OUTPUT CONTROL FOR STRESS PERIOD   20   TIME STEP    5
 
 WELLS WITH REDUCED PUMPING FOR STRESS PERIOD    20 TIME STEP     5
   LAY   ROW   COL         APPL.Q          ACT.Q        GW-HEAD       CELL-BOT
     1     3    50  -0.146010E+01  -0.550760E+00   0.467472E-03   0.000000E+00
     1     5    55  -0.146010E+01  -0.465829E+00   0.418326E-03   0.000000E+00
 
 
 SOLVING FOR HEAD 
                                                   Max.-Head-Change                         Max.-Flux-Residual
  Residual-Control   Outer-Iter.   Inner-Iter.     Column Row Layer    Maximum-Head-Change  Column Row Layer    Maximum-Flux-Residual          L2-NORM 
          0                 1           2            48    5     1       0.5518222601E-02      48    5    1         0.8040114470E-03      0.1054110635E-01
          0                 2           2             1    7     1      -0.4770989540E-03       1    4    1         0.8463786529E-04      0.1150218399E-02
          0                 3           1             1    1     1       0.4165271081E-04       1    4    1        -0.9839567316E-05      0.1062554393E-03
          0                 4           1             1    1     1      -0.3297594765E-05       1    4    1         0.8092375161E-06      0.8558630258E-05
          0                 5           1             1    1     1       0.2297071837E-06       1    4    1        -0.5689406990E-07      0.6010975833E-06

    ------------------------------------------------
       NWT REQUIRED            5 OUTER ITERATIONS 
       AND A TOTAL OF          7 INNER ITERATIONS.
    ------------------------------------------------

 NO OUTPUT CONTROL FOR STRESS PERIOD   20   TIME STEP    6
 
 WELLS WITH REDUCED PUMPING FOR STRESS PERIOD    20 TIME STEP     6
   LAY   ROW   COL         APPL.Q          ACT.Q        GW-HEAD       CELL-BOT
     1     3    50  -0.145992E+01  -0.550873E+00   0.467568E-03   0.000000E+00
     1     5    55  -0.145992E+01  -0.465905E+00   0.418399E-03   0.000000E+00
 
 
 SOLVING FOR HEAD 
                                                   Max.-Head-Change                         Max.-Flux-Residual
  Residual-Control   Outer-Iter.   Inner-Iter.     Column Row Layer    Maximum-Head-Change  Column Row Layer    Maximum-Flux-Residual          L2-NORM 
          0                 1           2             1    7     1       0.5825254267E-02      48    5    1         0.7349551291E-03      0.1051200955E-01
          0                 2           2             1    7     1      -0.5195810132E-03       1    4    1         0.8497884746E-04      0.1147805407E-02
          0                 3           1             1    1     1       0.4507416779E-04       1    4    1        -0.1028602440E-04      0.1074221315E-03
          0                 4           1             1    1     1      -0.3561400776E-05       1    4    1         0.8579050821E-06      0.8671684468E-05
          0                 5           1             1    1     1       0.2480240209E-06       1    4    1        -0.6043352130E-07      0.6094021669E-06

    ------------------------------------------------
       NWT REQUIRED            5 OUTER ITERATIONS 
       AND A TOTAL OF          7 INNER ITERATIONS.
    ------------------------------------------------

 NO OUTPUT CONTROL FOR STRESS PERIOD   20   TIME STEP    7
 
 WELLS WITH REDUCED PUMPING FOR STRESS PERIOD    20 TIME STEP     7
   LAY   ROW   COL         APPL.Q          ACT.Q        GW-HEAD       CELL-BOT
     1     3    50  -0.146004E+01  -0.551000E+00   0.467610E-03   0.000000E+00
     1     5    55  -0.146004E+01  -0.465991E+00   0.418424E-03   0.000000E+00
 
 
 SOLVING FOR HEAD 
                                                   Max.-Head-Change                         Max.-Flux-Residual
  Residual-Control   Outer-Iter.   Inner-Iter.     Column Row Layer    Maximum-Head-Change  Column Row Layer    Maximum-Flux-Residual          L2-NORM 
          0                 1           2            49    4     1       0.2769181180E-01      49    4    1         0.3914914669E-02      0.1162110783E-01
          0                 2           2            49    4     1       0.8963813536E-03      49    4    1         0.1557357405E-03      0.1167138091E-02
          0                 3           1             1    1     1       0.4872992966E-04       1    4    1        -0.1071266450E-04      0.1086372033E-03
          0                 4           1             1    1     1      -0.3840141885E-05       1    4    1         0.9070383911E-06      0.8808576375E-05
          0                 5           1             1    1     1       0.2673065046E-06       1    4    1        -0.6409891640E-07      0.6185494122E-06

    ------------------------------------------------
       NWT REQUIRED            5 OUTER ITERATIONS 
       AND A TOTAL OF          7 INNER ITERATIONS.
    ------------------------------------------------

 NO OUTPUT CONTROL FOR STRESS PERIOD   20   TIME STEP    8
 
 WELLS WITH REDUCED PUMPING FOR STRESS PERIOD    20 TIME STEP     8
   LAY   ROW   COL         APPL.Q          ACT.Q        GW-HEAD       CELL-BOT
     1     3    50  -0.146006E+01  -0.551293E+00   0.467760E-03   0.000000E+00
     1     5    55  -0.146006E+01  -0.466198E+00   0.418532E-03   0.000000E+00
 
 
 SOLVING FOR HEAD 
                                                   Max.-Head-Change                         Max.-Flux-Residual
  Residual-Control   Outer-Iter.   Inner-Iter.     Column Row Layer    Maximum-Head-Change  Column Row Layer    Maximum-Flux-Residual          L2-NORM 
          0                 1           2            56    4     1       0.2051417571E-01      56    4    1         0.2370217981E-02      0.1107412710E-01
          0                 2           2            56    4     1       0.6747283002E-03      56    4    1         0.1317173500E-03      0.1177039900E-02
          0                 3           1            49    5     1       0.6303212127E-04       1    4    1        -0.1111910888E-04      0.1112651176E-03
          0                 4           1            49    5     1      -0.4558357136E-05       1    4    1         0.9562383241E-06      0.9065525856E-05
          0                 5           1            49    5     1       0.3304380850E-06       1    4    1        -0.6787094975E-07      0.6375574336E-06

    ------------------------------------------------
       NWT REQUIRED            5 OUTER ITERATIONS 
       AND A TOTAL OF          7 INNER ITERATIONS.
    ------------------------------------------------

 NO OUTPUT CONTROL FOR STRESS PERIOD   20   TIME STEP    9
 
 WELLS WITH REDUCED PUMPING FOR STRESS PERIOD    20 TIME STEP     9
   LAY   ROW   COL         APPL.Q          ACT.Q        GW-HEAD       CELL-BOT
     1     3    50  -0.145994E+01  -0.551637E+00   0.467965E-03   0.000000E+00
     1     5    55  -0.145994E+01  -0.466477E+00   0.418703E-03   0.000000E+00
 
 
 SOLVING FOR HEAD 
                                                   Max.-Head-Change                         Max.-Flux-Residual
  Residual-Control   Outer-Iter.   Inner-Iter.     Column Row Layer    Maximum-Head-Change  Column Row Layer    Maximum-Flux-Residual          L2-NORM 
          0                 1           2            56    4     1       0.1316912455E-01      56    4    1         0.1125133003E-02      0.1081898263E-01
          0                 2           2            49    5     1      -0.6727896334E-03      49    5    1        -0.1101840200E-03      0.1178520599E-02
          0                 3           1            49    5     1       0.6952103266E-04       1    4    1        -0.1150508115E-04      0.1132874963E-03
          0                 4           1            49    5     1      -0.5286989245E-05       1    4    1         0.1005130727E-05      0.9266995693E-05
          0                 5           1            49    5     1       0.3737744331E-06       1    4    1        -0.7172608107E-07      0.6529970374E-06

    ------------------------------------------------
       NWT REQUIRED            5 OUTER ITERATIONS 
       AND A TOTAL OF          7 INNER ITERATIONS.
    ------------------------------------------------

 NO OUTPUT CONTROL FOR STRESS PERIOD   20   TIME STEP   10
 
 WELLS WITH REDUCED PUMPING FOR STRESS PERIOD    20 TIME STEP    10
   LAY   ROW   COL         APPL.Q          ACT.Q        GW-HEAD       CELL-BOT
     1     3    50  -0.146003E+01  -0.551991E+00   0.468133E-03   0.000000E+00
     1     5    55  -0.146003E+01  -0.466770E+00   0.418845E-03   0.000000E+00
 
 
 SOLVING FOR HEAD 
                                                   Max.-Head-Change                         Max.-Flux-Residual
  Residual-Control   Outer-Iter.   Inner-Iter.     Column Row Layer    Maximum-Head-Change  Column Row Layer    Maximum-Flux-Residual          L2-NORM 
          0                 1           2            49    5     1       0.1018393891E-01      49    5    1         0.9778644079E-03      0.1072322976E-01
          0                 2           2             1    1     1      -0.7290617327E-03      49    5    1        -0.9784688206E-04      0.1173292561E-02
          0                 3           1            49    5     1       0.6733270411E-04       1    4    1        -0.1187040049E-04      0.1144124017E-03
          0                 4           1            49    5     1      -0.5216226072E-05       1    4    1         0.1053366848E-05      0.9407156479E-05
          0                 5           1            49    5     1       0.3656924739E-06       1    4    1        -0.7563731685E-07      0.6642616183E-06

    ------------------------------------------------
       NWT REQUIRED            5 OUTER ITERATIONS 
       AND A TOTAL OF          7 INNER ITERATIONS.
    ------------------------------------------------

 NO OUTPUT CONTROL FOR STRESS PERIOD   20   TIME STEP   11
 
 WELLS WITH REDUCED PUMPING FOR STRESS PERIOD    20 TIME STEP    11
   LAY   ROW   COL         APPL.Q          ACT.Q        GW-HEAD       CELL-BOT
     1     3    50  -0.146005E+01  -0.552349E+00   0.468318E-03   0.000000E+00
     1     5    55  -0.146005E+01  -0.467064E+00   0.419001E-03   0.000000E+00
 
 
 SOLVING FOR HEAD 
                                                   Max.-Head-Change                         Max.-Flux-Residual
  Residual-Control   Outer-Iter.   Inner-Iter.     Column Row Layer    Maximum-Head-Change  Column Row Layer    Maximum-Flux-Residual          L2-NORM 
          0                 1           2            49    5     1       0.9770698282E-02      49    5    1         0.8426746538E-03      0.1065367247E-01
          0                 2           2             1    1     1      -0.7931981766E-03       1    4    1         0.8629361478E-04      0.1167197199E-02
          0                 3           1            48    7     1       0.6992339691E-04       1    4    1        -0.1221497793E-04      0.1153138623E-03
          0                 4           1            48    7     1      -0.5544728988E-05       1    4    1         0.1100624324E-05      0.9539154495E-05
          0                 5           1            48    7     1       0.3861819667E-06       1    4    1        -0.7957525838E-07      0.6752372706E-06

    ------------------------------------------------
       NWT REQUIRED            5 OUTER ITERATIONS 
       AND A TOTAL OF          7 INNER ITERATIONS.
    ------------------------------------------------

 NO OUTPUT CONTROL FOR STRESS PERIOD   20   TIME STEP   12
 
 WELLS WITH REDUCED PUMPING FOR STRESS PERIOD    20 TIME STEP    12
   LAY   ROW   COL         APPL.Q          ACT.Q        GW-HEAD       CELL-BOT
     1     3    50  -0.145994E+01  -0.552716E+00   0.468532E-03   0.000000E+00
     1     5    55  -0.145994E+01  -0.467362E+00   0.419180E-03   0.000000E+00
 
 
 SOLVING FOR HEAD 
                                                   Max.-Head-Change                         Max.-Flux-Residual
  Residual-Control   Outer-Iter.   Inner-Iter.     Column Row Layer    Maximum-Head-Change  Column Row Layer    Maximum-Flux-Residual          L2-NORM 
          0                 1           2             1    7     1       0.1021243909E-01      49    5    1         0.7341625324E-03      0.1059479933E-01
          0                 2           2             1    1     1      -0.8629312125E-03       1    4    1         0.8647542284E-04      0.1161607745E-02
          0                 3           1            48    7     1       0.7657742053E-04       1    4    1        -0.1253881021E-04      0.1161709778E-03
          0                 4           1            48    7     1      -0.6074264134E-05       1    4    1         0.1146607620E-05      0.9675035117E-05
          0                 5           1            48    7     1       0.4229850388E-06       1    4    1        -0.8350890823E-07      0.6868374239E-06

    ------------------------------------------------
       NWT REQUIRED            5 OUTER ITERATIONS 
       AND A TOTAL OF          7 INNER ITERATIONS.
    ------------------------------------------------

 NO OUTPUT CONTROL FOR STRESS PERIOD   20   TIME STEP   13
 
 WELLS WITH REDUCED PUMPING FOR STRESS PERIOD    20 TIME STEP    13
   LAY   ROW   COL         APPL.Q          ACT.Q        GW-HEAD       CELL-BOT
     1     3    50  -0.145996E+01  -0.553096E+00   0.468729E-03   0.000000E+00
     1     5    55  -0.145996E+01  -0.467667E+00   0.419342E-03   0.000000E+00
 
 
 SOLVING FOR HEAD 
                                                   Max.-Head-Change                         Max.-Flux-Residual
  Residual-Control   Outer-Iter.   Inner-Iter.     Column Row Layer    Maximum-Head-Change  Column Row Layer    Maximum-Flux-Residual          L2-NORM 
          0                 1           2            53    4     1       0.4374972539E-01      53    4    1         0.3326830552E-02      0.1168468373E-01
          0                 2           2            53    4     1       0.1767805877E-02      53    4    1         0.1520640574E-03      0.1185422440E-02
          0                 3           1            48    7     1       0.8296760029E-04       1    4    1        -0.1282492486E-04      0.1172501555E-03
          0                 4           1            48    7     1      -0.6579976199E-05       1    4    1         0.1190533382E-05      0.9833630849E-05
          0                 5           1            48    7     1       0.4581829003E-06       1    4    1        -0.8740336810E-07      0.6999129480E-06

    ------------------------------------------------
       NWT REQUIRED            5 OUTER ITERATIONS 
       AND A TOTAL OF          7 INNER ITERATIONS.
    ------------------------------------------------

 NO OUTPUT CONTROL FOR STRESS PERIOD   20   TIME STEP   14
 
 WELLS WITH REDUCED PUMPING FOR STRESS PERIOD    20 TIME STEP    14
   LAY   ROW   COL         APPL.Q          ACT.Q        GW-HEAD       CELL-BOT
     1     3    50  -0.146003E+01  -0.553553E+00   0.468954E-03   0.000000E+00
     1     5    55  -0.146003E+01  -0.468057E+00   0.419539E-03   0.000000E+00
 
 
 SOLVING FOR HEAD 
                                                   Max.-Head-Change                         Max.-Flux-Residual
  Residual-Control   Outer-Iter.   Inner-Iter.     Column Row Layer    Maximum-Head-Change  Column Row Layer    Maximum-Flux-Residual          L2-NORM 
          0                 1           2            51    4     1       0.4735937672E-01      51    4    1         0.3401748543E-02      0.1442484398E-01
          0                 2           2            54    4     1       0.1509998450E-02     100    4    1         0.1635656971E-03      0.1369626849E-02
          0                 3           1            53    5     1       0.1072541766E-03       4    4    1        -0.1518270387E-04      0.1249203720E-03
          0                 4           1            48    7     1      -0.7066729849E-05       2    4    1         0.1276100299E-05      0.1021751732E-04
          0                 5           1            53    5     1       0.5287281730E-06       2    4    1        -0.9172505244E-07      0.7229540454E-06

    ------------------------------------------------
       NWT REQUIRED            5 OUTER ITERATIONS 
       AND A TOTAL OF          7 INNER ITERATIONS.
    ------------------------------------------------

 NO OUTPUT CONTROL FOR STRESS PERIOD   20   TIME STEP   15
 
 WELLS WITH REDUCED PUMPING FOR STRESS PERIOD    20 TIME STEP    15
   LAY   ROW   COL         APPL.Q          ACT.Q        GW-HEAD       CELL-BOT
     1     3    50  -0.146003E+01  -0.554177E+00   0.469282E-03   0.000000E+00
     1     5    55  -0.146003E+01  -0.468948E+00   0.420020E-03   0.000000E+00
 
 
 SOLVING FOR HEAD 
                                                   Max.-Head-Change                         Max.-Flux-Residual
  Residual-Control   Outer-Iter.   Inner-Iter.     Column Row Layer    Maximum-Head-Change  Column Row Layer    Maximum-Flux-Residual          L2-NORM 
          0                 1           2            50    4     1       0.4675142586E-01      50    4    1         0.4144859749E-02      0.1441636933E-01
          0                 2           2            53    5     1      -0.1199544278E-02      20    4    1         0.1471774790E-03      0.1233316322E-02
          0                 3           2            53    5     1       0.1402281068E-03       1    4    1        -0.1232205922E-04      0.1079594702E-03
          0                 4           1            53    5     1      -0.1005758223E-04       1    4    1         0.9762705098E-06      0.8696096482E-05
          0                 5           1            53    5     1       0.7344476243E-06       1    4    1        -0.6814959619E-07      0.6125376234E-06

    ------------------------------------------------
       NWT REQUIRED            5 OUTER ITERATIONS 
       AND A TOTAL OF          8 INNER ITERATIONS.
    ------------------------------------------------

 NO OUTPUT CONTROL FOR STRESS PERIOD   20   TIME STEP   16
 
 WELLS WITH REDUCED PUMPING FOR STRESS PERIOD    20 TIME STEP    16
   LAY   ROW   COL         APPL.Q          ACT.Q        GW-HEAD       CELL-BOT
     1     3    50  -0.146003E+01  -0.556575E+00   0.470541E-03   0.000000E+00
     1     5    55  -0.146003E+01  -0.470950E+00   0.421098E-03   0.000000E+00
 
 
 SOLVING FOR HEAD 
                                                   Max.-Head-Change                         Max.-Flux-Residual
  Residual-Control   Outer-Iter.   Inner-Iter.     Column Row Layer    Maximum-Head-Change  Column Row Layer    Maximum-Flux-Residual          L2-NORM 
          0                 1           2            52    4     1       0.2352121916E-01      77    4    1        -0.1910055947E-02      0.1108849865E-01
          0                 2           2            52    5     1      -0.1381875226E-02      26    4    1         0.1362748862E-03      0.9934889935E-03
          0                 3           2            53    5     1       0.1463590849E-03      52    3    1         0.1068371647E-04      0.8828747629E-04
          0                 4           1            53    5     1      -0.1099654172E-04      52    3    1        -0.8473906746E-06      0.7192406315E-05
          0                 5           1            53    5     1       0.7819496707E-06      52    3    1         0.5984839008E-07      0.5110648655E-06

    ------------------------------------------------
       NWT REQUIRED            5 OUTER ITERATIONS 
       AND A TOTAL OF          8 INNER ITERATIONS.
    ------------------------------------------------

 NO OUTPUT CONTROL FOR STRESS PERIOD   20   TIME STEP   17
 
 WELLS WITH REDUCED PUMPING FOR STRESS PERIOD    20 TIME STEP    17
   LAY   ROW   COL         APPL.Q          ACT.Q        GW-HEAD       CELL-BOT
     1     3    50  -0.145998E+01  -0.557877E+00   0.471234E-03   0.000000E+00
     1     5    55  -0.145998E+01  -0.472067E+00   0.421707E-03   0.000000E+00
 
 
 SOLVING FOR HEAD 
                                                   Max.-Head-Change                         Max.-Flux-Residual
  Residual-Control   Outer-Iter.   Inner-Iter.     Column Row Layer    Maximum-Head-Change  Column Row Layer    Maximum-Flux-Residual          L2-NORM 
          0                 1           2            52    3     1       0.2279379258E-01      73    4    1        -0.1940586033E-02      0.1025366008E-01
          0                 2           2            52    6     1      -0.1537392052E-02      31    4    1         0.1333815609E-03      0.9039275660E-03
          0                 3           2            53    3     1       0.1457351294E-03      32    4    1        -0.9851759907E-05      0.8175059765E-04
          0                 4           1            52    5     1      -0.1122354506E-04      52    3    1        -0.7781913220E-06      0.6728892577E-05
          0                 5           1            52    5     1       0.7880311755E-06      44    4    1        -0.5529704072E-07      0.4803090089E-06

    ------------------------------------------------
       NWT REQUIRED            5 OUTER ITERATIONS 
       AND A TOTAL OF          8 INNER ITERATIONS.
    ------------------------------------------------

 NO OUTPUT CONTROL FOR STRESS PERIOD   20   TIME STEP   18
 
 WELLS WITH REDUCED PUMPING FOR STRESS PERIOD    20 TIME STEP    18
   LAY   ROW   COL         APPL.Q          ACT.Q        GW-HEAD       CELL-BOT
     1     3    50  -0.145998E+01  -0.558864E+00   0.471753E-03   0.000000E+00
     1     5    55  -0.145998E+01  -0.472911E+00   0.422162E-03   0.000000E+00
 
 
 SOLVING FOR HEAD 
                                                   Max.-Head-Change                         Max.-Flux-Residual
  Residual-Control   Outer-Iter.   Inner-Iter.     Column Row Layer    Maximum-Head-Change  Column Row Layer    Maximum-Flux-Residual          L2-NORM 
          0                 1           2            52    5     1       0.2300943118E-01      70    4    1        -0.1927910453E-02      0.1002780093E-01
          0                 2           2            52    6     1      -0.1730438346E-02      35    4    1         0.1338594684E-03      0.8756872197E-03
          0                 3           2            52    6     1       0.1578239555E-03      35    4    1        -0.9961165384E-05      0.8109121910E-04
          0                 4           1            52    6     1      -0.1247467006E-04      44    4    1         0.8047648432E-06      0.6780978920E-05
          0                 5           1            52    6     1       0.8693482597E-06      44    4    1        -0.5797666791E-07      0.4882949329E-06

    ------------------------------------------------
       NWT REQUIRED            5 OUTER ITERATIONS 
       AND A TOTAL OF          8 INNER ITERATIONS.
    ------------------------------------------------

 NO OUTPUT CONTROL FOR STRESS PERIOD   20   TIME STEP   19
 
 WELLS WITH REDUCED PUMPING FOR STRESS PERIOD    20 TIME STEP    19
   LAY   ROW   COL         APPL.Q          ACT.Q        GW-HEAD       CELL-BOT
     1     3    50  -0.145997E+01  -0.559768E+00   0.472228E-03   0.000000E+00
     1     5    55  -0.145997E+01  -0.473674E+00   0.422573E-03   0.000000E+00
 
 
 SOLVING FOR HEAD 
                                                   Max.-Head-Change                         Max.-Flux-Residual
  Residual-Control   Outer-Iter.   Inner-Iter.     Column Row Layer    Maximum-Head-Change  Column Row Layer    Maximum-Flux-Residual          L2-NORM 
          0                 1           2            52    5     1       0.2352469827E-01      67    4    1        -0.1870049175E-02      0.9800433462E-02
          0                 2           2            52    6     1      -0.1899729275E-02      38    4    1         0.1314425238E-03      0.8732601512E-03
          0                 3           2            52    6     1       0.1719208986E-03      39    4    1        -0.1034989084E-04      0.8342747734E-04
          0                 4           1            52    6     1      -0.1362104613E-04      44    4    1         0.8344490627E-06      0.7101004133E-05
          0                 5           1            52    6     1       0.9483263465E-06      75    4    1         0.6066053437E-07      0.5159033328E-06

    ------------------------------------------------
       NWT REQUIRED            5 OUTER ITERATIONS 
       AND A TOTAL OF          8 INNER ITERATIONS.
    ------------------------------------------------

 NO OUTPUT CONTROL FOR STRESS PERIOD   20   TIME STEP   20
 
 WELLS WITH REDUCED PUMPING FOR STRESS PERIOD    20 TIME STEP    20
   LAY   ROW   COL         APPL.Q          ACT.Q        GW-HEAD       CELL-BOT
     1     3    50  -0.146002E+01  -0.560664E+00   0.472688E-03   0.000000E+00
     1     5    55  -0.146002E+01  -0.474422E+00   0.422967E-03   0.000000E+00
 
 
 SOLVING FOR HEAD 
                                                   Max.-Head-Change                         Max.-Flux-Residual
  Residual-Control   Outer-Iter.   Inner-Iter.     Column Row Layer    Maximum-Head-Change  Column Row Layer    Maximum-Flux-Residual          L2-NORM 
          0                 1           2            52    5     1       0.2426856003E-01      64    4    1        -0.1851089374E-02      0.1000386940E-01
          0                 2           2            52    7     1      -0.2092787724E-02      41    4    1         0.1345379814E-03      0.8865921366E-03
          0                 3           2            52    7     1       0.1871699358E-03      42    4    1        -0.1079823853E-04      0.8614350488E-04
          0                 4           1            52    7     1      -0.1485120070E-04      75    4    1        -0.8985048652E-06      0.7456159182E-05
          0                 5           1            52    7     1       0.1031807239E-05      76    4    1         0.7066920915E-07      0.5478261242E-06
          0                 6           1            52    7     1      -0.6185149391E-07      76    4    1        -0.4477369586E-08      0.3402101712E-07

    ------------------------------------------------
       NWT REQUIRED            6 OUTER ITERATIONS 
       AND A TOTAL OF          9 INNER ITERATIONS.
    ------------------------------------------------

 NO OUTPUT CONTROL FOR STRESS PERIOD   20   TIME STEP   21
 
 WELLS WITH REDUCED PUMPING FOR STRESS PERIOD    20 TIME STEP    21
   LAY   ROW   COL         APPL.Q          ACT.Q        GW-HEAD       CELL-BOT
     1     3    50  -0.146000E+01  -0.561583E+00   0.473173E-03   0.000000E+00
     1     5    55  -0.146000E+01  -0.475181E+00   0.423377E-03   0.000000E+00
 
 
 SOLVING FOR HEAD 
                                                   Max.-Head-Change                         Max.-Flux-Residual
  Residual-Control   Outer-Iter.   Inner-Iter.     Column Row Layer    Maximum-Head-Change  Column Row Layer    Maximum-Flux-Residual          L2-NORM 
          0                 1           2            52    5     1       0.2519928587E-01      61    4    1        -0.1734644798E-02      0.9893473267E-02
          0                 2           2            52    7     1      -0.2297964206E-02      44    4    1         0.1376161629E-03      0.9089059664E-03
          0                 3           2            52    7     1       0.2049652235E-03      44    4    1        -0.1092346036E-04      0.9060943448E-04
          0                 4           1            52    7     1      -0.1626523836E-04      77    4    1        -0.1005547565E-05      0.7959384999E-05
          0                 5           1            52    7     1       0.1128709039E-05      76    4    1         0.7895614651E-07      0.5894902971E-06
          0                 6           1            52    7     1      -0.6763076189E-07      76    4    1        -0.5025754035E-08      0.3673500336E-07

    ------------------------------------------------
       NWT REQUIRED            6 OUTER ITERATIONS 
       AND A TOTAL OF          9 INNER ITERATIONS.
    ------------------------------------------------

 NO OUTPUT CONTROL FOR STRESS PERIOD   20   TIME STEP   22
 
 WELLS WITH REDUCED PUMPING FOR STRESS PERIOD    20 TIME STEP    22
   LAY   ROW   COL         APPL.Q          ACT.Q        GW-HEAD       CELL-BOT
     1     3    50  -0.145999E+01  -0.562533E+00   0.473673E-03   0.000000E+00
     1     5    55  -0.145999E+01  -0.475960E+00   0.423798E-03   0.000000E+00
 
 
 SOLVING FOR HEAD 
                                                   Max.-Head-Change                         Max.-Flux-Residual
  Residual-Control   Outer-Iter.   Inner-Iter.     Column Row Layer    Maximum-Head-Change  Column Row Layer    Maximum-Flux-Residual          L2-NORM 
          0                 1           2            52    6     1       0.2661700633E-01      59    4    1        -0.1749914994E-02      0.1000831457E-01
          0                 2           2            52    7     1      -0.2476921075E-02      46    4    1         0.1330832382E-03      0.9146834122E-03
          0                 3           2            52    7     1       0.2202865236E-03      73    4    1         0.1072826813E-04      0.9247909864E-04
          0                 4           1            52    7     1      -0.1748102071E-04      73    4    1        -0.1124260569E-05      0.8246257529E-05
          0                 5           1            52    7     1       0.1210881422E-05      74    4    1         0.8905141335E-07      0.6160357184E-06
          0                 6           1            52    7     1      -0.7251727162E-07      74    4    1        -0.5686032978E-08      0.3851492322E-07

    ------------------------------------------------
       NWT REQUIRED            6 OUTER ITERATIONS 
       AND A TOTAL OF          9 INNER ITERATIONS.
    ------------------------------------------------

 NO OUTPUT CONTROL FOR STRESS PERIOD   20   TIME STEP   23
 
 WELLS WITH REDUCED PUMPING FOR STRESS PERIOD    20 TIME STEP    23
   LAY   ROW   COL         APPL.Q          ACT.Q        GW-HEAD       CELL-BOT
     1     3    50  -0.145998E+01  -0.563489E+00   0.474175E-03   0.000000E+00
     1     5    55  -0.145998E+01  -0.476739E+00   0.424217E-03   0.000000E+00
 
 
 SOLVING FOR HEAD 
                                                   Max.-Head-Change                         Max.-Flux-Residual
  Residual-Control   Outer-Iter.   Inner-Iter.     Column Row Layer    Maximum-Head-Change  Column Row Layer    Maximum-Flux-Residual          L2-NORM 
          0                 1           2            73    4     1      -0.2894409838E-01      57    4    1        -0.1694125879E-02      0.9998657268E-02
          0                 2           2            52    7     1      -0.2630030745E-02      48    4    1         0.1169743393E-03      0.9246170219E-03
          0                 3           2            52    7     1       0.2331082015E-03      70    4    1         0.1113545458E-04      0.9580325761E-04
          0                 4           1            52    7     1      -0.1849279598E-04      77    4    1        -0.1166698366E-05      0.8684986106E-05
          0                 5           1            52    7     1       0.1278379505E-05      76    4    1         0.9383120592E-07      0.6546637752E-06
          0                 6           1            53    1     1      -0.7655260720E-07      76    4    1        -0.6057247148E-08      0.4114690251E-07

    ------------------------------------------------
       NWT REQUIRED            6 OUTER ITERATIONS 
       AND A TOTAL OF          9 INNER ITERATIONS.
    ------------------------------------------------

 NO OUTPUT CONTROL FOR STRESS PERIOD   20   TIME STEP   24
 
 WELLS WITH REDUCED PUMPING FOR STRESS PERIOD    20 TIME STEP    24
   LAY   ROW   COL         APPL.Q          ACT.Q        GW-HEAD       CELL-BOT
     1     3    50  -0.145999E+01  -0.564233E+00   0.474563E-03   0.000000E+00
     1     5    55  -0.145999E+01  -0.477316E+00   0.424525E-03   0.000000E+00
 
 
 SOLVING FOR HEAD 
                                                   Max.-Head-Change                         Max.-Flux-Residual
  Residual-Control   Outer-Iter.   Inner-Iter.     Column Row Layer    Maximum-Head-Change  Column Row Layer    Maximum-Flux-Residual          L2-NORM 
          0                 1           2            70    4     1      -0.3217095598E-01      56    4    1        -0.1733909396E-02      0.1026458222E-01
          0                 2           2            52    7     1      -0.2702819691E-02      49    4    1         0.9506087641E-04      0.9526527248E-03
          0                 3           2            52    7     1       0.2417741136E-03      74    4    1         0.1224509274E-04      0.1001078448E-03
          0                 4           1            52    7     1      -0.1918209171E-04      74    4    1        -0.1295194993E-05      0.9168485647E-05
          0                 5           1            53    1     1       0.1325002016E-05      74    4    1         0.1039527593E-06      0.6940716416E-06
          0                 6           1            53    1     1      -0.7942470321E-07      74    4    1        -0.6705796807E-08      0.4369119800E-07

    ------------------------------------------------
       NWT REQUIRED            6 OUTER ITERATIONS 
       AND A TOTAL OF          9 INNER ITERATIONS.
    ------------------------------------------------

 NO OUTPUT CONTROL FOR STRESS PERIOD   20   TIME STEP   25
 
 WELLS WITH REDUCED PUMPING FOR STRESS PERIOD    20 TIME STEP    25
   LAY   ROW   COL         APPL.Q          ACT.Q        GW-HEAD       CELL-BOT
     1     3    50  -0.146002E+01  -0.563999E+00   0.474436E-03   0.000000E+00
     1     5    55  -0.146002E+01  -0.476887E+00   0.424290E-03   0.000000E+00
 
 
 SOLVING FOR HEAD 
                                                   Max.-Head-Change                         Max.-Flux-Residual
  Residual-Control   Outer-Iter.   Inner-Iter.     Column Row Layer    Maximum-Head-Change  Column Row Layer    Maximum-Flux-Residual          L2-NORM 
          0                 1           2            75    4     1      -0.3615556919E-01      50    4    1        -0.1750120060E-02      0.1047934451E-01
          0                 2           2            73    7     1       0.2809085765E-02      50    4    1         0.9030426888E-04      0.9570809153E-03
          0                 3           2            73    7     1      -0.2120348645E-03      71    4    1         0.1264113919E-04      0.1020008697E-03
          0                 4           1            52    7     1      -0.1650330185E-04      71    4    1        -0.1339948891E-05      0.9469147646E-05
          0                 5           1            53    1     1       0.1139184230E-05      72    4    1         0.1062271764E-06      0.7221428824E-06
          0                 6           1            53    1     1      -0.6825216135E-07      72    4    1        -0.6925468199E-08      0.4571460506E-07

    ------------------------------------------------
       NWT REQUIRED            6 OUTER ITERATIONS 
       AND A TOTAL OF          9 INNER ITERATIONS.
    ------------------------------------------------

 NO OUTPUT CONTROL FOR STRESS PERIOD   20   TIME STEP   26
 
 WELLS WITH REDUCED PUMPING FOR STRESS PERIOD    20 TIME STEP    26
   LAY   ROW   COL         APPL.Q          ACT.Q        GW-HEAD       CELL-BOT
     1     3    50  -0.146001E+01  -0.562964E+00   0.473895E-03   0.000000E+00
     1     5    55  -0.146001E+01  -0.475729E+00   0.423670E-03   0.000000E+00
 
 
 SOLVING FOR HEAD 
                                                   Max.-Head-Change                         Max.-Flux-Residual
  Residual-Control   Outer-Iter.   Inner-Iter.     Column Row Layer    Maximum-Head-Change  Column Row Layer    Maximum-Flux-Residual          L2-NORM 
          0                 1           3            72    4     1      -0.4088330218E-01      50    4    1        -0.8214622590E-03      0.1012755085E-01
          0                 2           2            72    7     1       0.3185433681E-02      74    3    1         0.6952166537E-04      0.9777086761E-03
          0                 3           2            72    7     1      -0.2387197128E-03      75    4    1         0.1276425402E-04      0.1061087840E-03
          0                 4           1            72    7     1       0.1652381233E-04      75    4    1        -0.1383270630E-05      0.9933487592E-05
          0                 5           1            71    7     1      -0.1038104045E-05      74    4    1         0.1124743747E-06      0.7600333522E-06
          0                 6           1            70    7     1       0.5898255114E-07      74    4    1        -0.7391507850E-08      0.4823101302E-07

    ------------------------------------------------
       NWT REQUIRED            6 OUTER ITERATIONS 
       AND A TOTAL OF         10 INNER ITERATIONS.
    ------------------------------------------------

 NO OUTPUT CONTROL FOR STRESS PERIOD   20   TIME STEP   27
 
 WELLS WITH REDUCED PUMPING FOR STRESS PERIOD    20 TIME STEP    27
   LAY   ROW   COL         APPL.Q          ACT.Q        GW-HEAD       CELL-BOT
     1     3    50  -0.146000E+01  -0.562278E+00   0.473537E-03   0.000000E+00
     1     5    55  -0.146000E+01  -0.474907E+00   0.423230E-03   0.000000E+00
 
 
 SOLVING FOR HEAD 
                                                   Max.-Head-Change                         Max.-Flux-Residual
  Residual-Control   Outer-Iter.   Inner-Iter.     Column Row Layer    Maximum-Head-Change  Column Row Layer    Maximum-Flux-Residual          L2-NORM 
          0                 1           3            69    4     1      -0.4424284175E-01      72    5    1        -0.7183653422E-03      0.1024375551E-01
          0                 2           2            71    7     1       0.3524156488E-02      72    3    1         0.7181658621E-04      0.1018490751E-02
          0                 3           2            71    7     1      -0.2635917042E-03      72    4    1         0.1326661122E-04      0.1112019863E-03
          0                 4           1            71    7     1       0.1818224943E-04      72    4    1        -0.1441935680E-05      0.1044192256E-04
          0                 5           1            71    7     1      -0.1137681699E-05      72    4    1         0.1184400134E-06      0.7995754708E-06
          0                 6           1            70    1     1       0.6425411404E-07      72    4    1        -0.7793595103E-08      0.5084282856E-07

    ------------------------------------------------
       NWT REQUIRED            6 OUTER ITERATIONS 
       AND A TOTAL OF         10 INNER ITERATIONS.
    ------------------------------------------------

 NO OUTPUT CONTROL FOR STRESS PERIOD   20   TIME STEP   28
 
 WELLS WITH REDUCED PUMPING FOR STRESS PERIOD    20 TIME STEP    28
   LAY   ROW   COL         APPL.Q          ACT.Q        GW-HEAD       CELL-BOT
     1     3    50  -0.146000E+01  -0.561668E+00   0.473217E-03   0.000000E+00
     1     5    55  -0.146000E+01  -0.474133E+00   0.422814E-03   0.000000E+00
 
 
 SOLVING FOR HEAD 
                                                   Max.-Head-Change                         Max.-Flux-Residual
  Residual-Control   Outer-Iter.   Inner-Iter.     Column Row Layer    Maximum-Head-Change  Column Row Layer    Maximum-Flux-Residual          L2-NORM 
          0                 1           3            75    4     1      -0.4901374858E-01      70    5    1        -0.7116862030E-03      0.1039475306E-01
          0                 2           2            73    7     1       0.3894423348E-02      70    3    1         0.7114752438E-04      0.1048908750E-02
          0                 3           2            72    7     1      -0.2889602239E-03      71    4    1         0.1343512135E-04      0.1148374359E-03
          0                 4           1            71    7     1       0.1972612954E-04      71    4    1        -0.1465748120E-05      0.1081446630E-04
          0                 5           1            70    7     1      -0.1229416349E-05      70    4    1         0.1193395054E-06      0.8283857251E-06
          0                 6           1            70    7     1       0.6940670100E-07      70    4    1        -0.7897389409E-08      0.5277640447E-07

    ------------------------------------------------
       NWT REQUIRED            6 OUTER ITERATIONS 
       AND A TOTAL OF         10 INNER ITERATIONS.
    ------------------------------------------------

 NO OUTPUT CONTROL FOR STRESS PERIOD   20   TIME STEP   29
 
 WELLS WITH REDUCED PUMPING FOR STRESS PERIOD    20 TIME STEP    29
   LAY   ROW   COL         APPL.Q          ACT.Q        GW-HEAD       CELL-BOT
     1     3    50  -0.145999E+01  -0.560974E+00   0.472856E-03   0.000000E+00
     1     5    55  -0.145999E+01  -0.473272E+00   0.422353E-03   0.000000E+00
 
 
 SOLVING FOR HEAD 
                                                   Max.-Head-Change                         Max.-Flux-Residual
  Residual-Control   Outer-Iter.   Inner-Iter.     Column Row Layer    Maximum-Head-Change  Column Row Layer    Maximum-Flux-Residual          L2-NORM 
          0                 1           3            72    4     1      -0.5563456249E-01      74    5    1        -0.7167338771E-03      0.1056720236E-01
          0                 2           2            72    7     1       0.4379723607E-02      74    3    1         0.7166597606E-04      0.1072157093E-02
          0                 3           2            72    7     1      -0.3229314160E-03      68    4    1         0.1308992676E-04      0.1175727940E-03
          0                 4           1            72    7     1       0.2176272858E-04      75    4    1        -0.1458800041E-05      0.1110294064E-04
          0                 5           1            70    7     1      -0.1328642147E-05      74    4    1         0.1218400190E-06      0.8502285839E-06
          0                 6           1            70    7     1       0.7418064398E-07      74    4    1        -0.8153861586E-08      0.5425614689E-07

    ------------------------------------------------
       NWT REQUIRED            6 OUTER ITERATIONS 
       AND A TOTAL OF         10 INNER ITERATIONS.
    ------------------------------------------------

 OUTPUT CONTROL FOR STRESS PERIOD   20   TIME STEP   30
    PRINT HEAD FOR ALL LAYERS
    SAVE HEAD FOR ALL LAYERS
    PRINT BUDGET
    SAVE BUDGET
 
 WELLS WITH REDUCED PUMPING FOR STRESS PERIOD    20 TIME STEP    30
   LAY   ROW   COL         APPL.Q          ACT.Q        GW-HEAD       CELL-BOT
     1     3    50  -0.145999E+01  -0.560141E+00   0.472419E-03   0.000000E+00
     1     5    55  -0.145999E+01  -0.472237E+00   0.421797E-03   0.000000E+00

            WELLS   PERIOD   20   STEP  30
 WELL      1   LAYER   1   ROW     3   COL    50   RATE   -0.560141    
 WELL      2   LAYER   1   ROW     5   COL    55   RATE   -0.472237    
 

  HEAD DEP BOUNDS   PERIOD   20   STEP    30
 BOUNDARY      1   LAYER   1   ROW     1   COL   100   RATE   -1.547651E-02
 BOUNDARY      2   LAYER   1   ROW     2   COL   100   RATE   -1.568275E-02
 BOUNDARY      3   LAYER   1   ROW     3   COL   100   RATE   -1.621988E-02
 BOUNDARY      4   LAYER   1   ROW     4   COL   100   RATE   -1.957080E-02
 BOUNDARY      5   LAYER   1   ROW     5   COL   100   RATE   -1.621988E-02
 BOUNDARY      6   LAYER   1   ROW     6   COL   100   RATE   -1.568275E-02
 BOUNDARY      7   LAYER   1   ROW     7   COL   100   RATE   -1.547651E-02



 STREAM LISTING     PERIOD     20   STEP       30

 LAYER ROW COL. STREAM  RCH.   FLOW INTO    STREAM     FLOW OUT OF   OVRLND.    DIRECT     STREAM      STREAM      STREAM     STREAM  STREAMBED   FLOW TO   CHNG. UNSAT. 
                SEG.NO.  NO.   STRM. RCH.    LOSS       STRM. RCH.   RUNOFF     PRECIP       ET         HEAD        DEPTH      WIDTH  CONDCTNC.   WAT. TAB.

   1    4    1     1     1    3.5560E+01  8.8938E-03   3.5551E+01  0.000E+00  0.000E+00  0.000E+00  1.44127E+02  4.277E+00  9.106E+00  1.862E-03  8.870E-03  2.414E-05
   1    4    2     1     2    3.5551E+01  8.8917E-03   3.5542E+01  0.000E+00  0.000E+00  0.000E+00  1.43826E+02  4.276E+00  9.104E+00  1.862E-03  8.867E-03  2.426E-05
   1    4    3     1     3    3.5542E+01  8.8897E-03   3.5533E+01  0.000E+00  0.000E+00  0.000E+00  1.43526E+02  4.276E+00  9.103E+00  1.861E-03  8.865E-03  2.451E-05
   1    4    4     1     4    3.5533E+01  8.8877E-03   3.5524E+01  0.000E+00  0.000E+00  0.000E+00  1.43225E+02  4.275E+00  9.101E+00  1.861E-03  8.863E-03  2.488E-05
   1    4    5     1     5    3.5524E+01  8.8857E-03   3.5516E+01  0.000E+00  0.000E+00  0.000E+00  1.42925E+02  4.275E+00  9.099E+00  1.861E-03  8.860E-03  2.539E-05
   1    4    6     1     6    3.5516E+01  8.8837E-03   3.5507E+01  0.000E+00  0.000E+00  0.000E+00  1.42624E+02  4.274E+00  9.098E+00  1.861E-03  8.858E-03  2.603E-05
   1    4    7     1     7    3.5507E+01  8.8816E-03   3.5498E+01  0.000E+00  0.000E+00  0.000E+00  1.42324E+02  4.274E+00  9.096E+00  1.860E-03  8.855E-03  2.680E-05
   1    4    8     1     8    3.5498E+01  8.8796E-03   3.5489E+01  0.000E+00  0.000E+00  0.000E+00  1.42024E+02  4.274E+00  9.094E+00  1.860E-03  8.852E-03  2.770E-05
   1    4    9     1     9    3.5489E+01  8.8776E-03   3.5480E+01  0.000E+00  0.000E+00  0.000E+00  1.41723E+02  4.273E+00  9.093E+00  1.860E-03  8.849E-03  2.872E-05
   1    4   10     1    10    3.5480E+01  8.8756E-03   3.5471E+01  0.000E+00  0.000E+00  0.000E+00  1.41423E+02  4.273E+00  9.091E+00  1.860E-03  8.846E-03  2.986E-05
   1    4   11     1    11    3.5471E+01  8.8736E-03   3.5462E+01  0.000E+00  0.000E+00  0.000E+00  1.41122E+02  4.272E+00  9.089E+00  1.859E-03  8.842E-03  3.110E-05
   1    4   12     1    12    3.5462E+01  8.8716E-03   3.5453E+01  0.000E+00  0.000E+00  0.000E+00  1.40822E+02  4.272E+00  9.088E+00  1.859E-03  8.839E-03  3.244E-05
   1    4   13     1    13    3.5453E+01  8.8695E-03   3.5445E+01  0.000E+00  0.000E+00  0.000E+00  1.40522E+02  4.272E+00  9.086E+00  1.859E-03  8.836E-03  3.387E-05
   1    4   14     1    14    3.5445E+01  8.8675E-03   3.5436E+01  0.000E+00  0.000E+00  0.000E+00  1.40221E+02  4.271E+00  9.084E+00  1.859E-03  8.832E-03  3.536E-05
   1    4   15     1    15    3.5436E+01  8.8655E-03   3.5427E+01  0.000E+00  0.000E+00  0.000E+00  1.39921E+02  4.271E+00  9.083E+00  1.858E-03  8.829E-03  3.691E-05
   1    4   16     1    16    3.5427E+01  8.8635E-03   3.5418E+01  0.000E+00  0.000E+00  0.000E+00  1.39620E+02  4.270E+00  9.081E+00  1.858E-03  8.825E-03  3.851E-05
   1    4   17     1    17    3.5418E+01  8.8615E-03   3.5409E+01  0.000E+00  0.000E+00  0.000E+00  1.39320E+02  4.270E+00  9.079E+00  1.858E-03  8.821E-03  4.014E-05
   1    4   18     1    18    3.5409E+01  8.8595E-03   3.5400E+01  0.000E+00  0.000E+00  0.000E+00  1.39019E+02  4.269E+00  9.078E+00  1.858E-03  8.818E-03  4.178E-05
   1    4   19     1    19    3.5400E+01  8.8574E-03   3.5391E+01  0.000E+00  0.000E+00  0.000E+00  1.38719E+02  4.269E+00  9.076E+00  1.857E-03  8.814E-03  4.342E-05
   1    4   20     1    20    3.5391E+01  8.8554E-03   3.5383E+01  0.000E+00  0.000E+00  0.000E+00  1.38419E+02  4.269E+00  9.074E+00  1.857E-03  8.810E-03  4.505E-05
   1    4   21     1    21    3.5383E+01  8.8534E-03   3.5374E+01  0.000E+00  0.000E+00  0.000E+00  1.38118E+02  4.268E+00  9.073E+00  1.857E-03  8.807E-03  4.664E-05
   1    4   22     1    22    3.5374E+01  8.8514E-03   3.5365E+01  0.000E+00  0.000E+00  0.000E+00  1.37818E+02  4.268E+00  9.071E+00  1.857E-03  8.803E-03  4.818E-05
   1    4   23     1    23    3.5365E+01  8.8494E-03   3.5356E+01  0.000E+00  0.000E+00  0.000E+00  1.37517E+02  4.267E+00  9.069E+00  1.856E-03  8.800E-03  4.967E-05
   1    4   24     1    24    3.5356E+01  8.8474E-03   3.5347E+01  0.000E+00  0.000E+00  0.000E+00  1.37217E+02  4.267E+00  9.068E+00  1.856E-03  8.796E-03  5.109E-05
   1    4   25     1    25    3.5347E+01  8.8454E-03   3.5338E+01  0.000E+00  0.000E+00  0.000E+00  1.36917E+02  4.267E+00  9.066E+00  1.856E-03  8.793E-03  5.241E-05
   1    4   26     1    26    3.5338E+01  8.8433E-03   3.5329E+01  0.000E+00  0.000E+00  0.000E+00  1.36616E+02  4.266E+00  9.064E+00  1.855E-03  8.790E-03  5.361E-05
   1    4   27     1    27    3.5329E+01  8.8413E-03   3.5321E+01  0.000E+00  0.000E+00  0.000E+00  1.36316E+02  4.266E+00  9.063E+00  1.855E-03  8.787E-03  5.470E-05
   1    4   28     1    28    3.5321E+01  8.8393E-03   3.5312E+01  0.000E+00  0.000E+00  0.000E+00  1.36015E+02  4.265E+00  9.061E+00  1.855E-03  8.784E-03  5.569E-05
   1    4   29     1    29    3.5312E+01  8.8373E-03   3.5303E+01  0.000E+00  0.000E+00  0.000E+00  1.35715E+02  4.265E+00  9.059E+00  1.855E-03  8.781E-03  5.653E-05
   1    4   30     1    30    3.5303E+01  8.8353E-03   3.5294E+01  0.000E+00  0.000E+00  0.000E+00  1.35414E+02  4.264E+00  9.058E+00  1.854E-03  8.778E-03  5.720E-05
   1    4   31     1    31    3.5294E+01  8.8333E-03   3.5285E+01  0.000E+00  0.000E+00  0.000E+00  1.35114E+02  4.264E+00  9.056E+00  1.854E-03  8.776E-03  5.772E-05
   1    4   32     1    32    3.5285E+01  8.8313E-03   3.5276E+01  0.000E+00  0.000E+00  0.000E+00  1.34814E+02  4.264E+00  9.054E+00  1.854E-03  8.773E-03  5.870E-05
   1    4   33     1    33    3.5276E+01  8.8293E-03   3.5268E+01  0.000E+00  0.000E+00  0.000E+00  1.34513E+02  4.263E+00  9.053E+00  1.854E-03  8.770E-03  5.953E-05
   1    4   34     1    34    3.5268E+01  8.8272E-03   3.5259E+01  0.000E+00  0.000E+00  0.000E+00  1.34213E+02  4.263E+00  9.051E+00  1.853E-03  8.767E-03  5.986E-05
   1    4   35     1    35    3.5259E+01  8.8252E-03   3.5250E+01  0.000E+00  0.000E+00  0.000E+00  1.33912E+02  4.262E+00  9.050E+00  1.853E-03  8.835E-03 -9.354E-06
   1    4   36     1    36    3.5250E+01  8.8232E-03   3.5241E+01  0.000E+00  0.000E+00  0.000E+00  1.33612E+02  4.262E+00  9.048E+00  1.853E-03  8.943E-03 -1.194E-04
   1    4   37     1    37    3.5241E+01  8.8212E-03   3.5232E+01  0.000E+00  0.000E+00  0.000E+00  1.33312E+02  4.262E+00  9.046E+00  1.853E-03  9.058E-03 -2.371E-04
   1    4   38     1    38    3.5232E+01  8.8192E-03   3.5223E+01  0.000E+00  0.000E+00  0.000E+00  1.33011E+02  4.261E+00  9.045E+00  1.852E-03  9.090E-03 -2.703E-04
   1    4   39     1    39    3.5223E+01  8.8172E-03   3.5215E+01  0.000E+00  0.000E+00  0.000E+00  1.32711E+02  4.261E+00  9.043E+00  1.852E-03  9.089E-03 -2.715E-04
   1    4   40     1    40    3.5215E+01  8.8152E-03   3.5206E+01  0.000E+00  0.000E+00  0.000E+00  1.32410E+02  4.260E+00  9.041E+00  1.852E-03  9.087E-03 -2.723E-04
   1    4   41     1    41    3.5206E+01  8.8132E-03   3.5197E+01  0.000E+00  0.000E+00  0.000E+00  1.32110E+02  4.260E+00  9.040E+00  1.852E-03  9.085E-03 -2.717E-04
   1    4   42     1    42    3.5197E+01  8.8112E-03   3.5188E+01  0.000E+00  0.000E+00  0.000E+00  1.31809E+02  4.259E+00  9.038E+00  1.851E-03  9.082E-03 -2.713E-04
   1    4   43     1    43    3.5188E+01  8.8092E-03   3.5179E+01  0.000E+00  0.000E+00  0.000E+00  1.31509E+02  4.259E+00  9.036E+00  1.851E-03  9.181E-03 -3.722E-04
   1    4   44     1    44    3.5179E+01  8.8072E-03   3.5171E+01  0.000E+00  0.000E+00  0.000E+00  1.31209E+02  4.259E+00  9.035E+00  1.851E-03  9.362E-03 -5.544E-04
   1    4   45     1    45    3.5171E+01  8.8052E-03   3.5162E+01  0.000E+00  0.000E+00  0.000E+00  1.30908E+02  4.258E+00  9.033E+00  1.851E-03  9.477E-03 -6.720E-04
   1    4   46     1    46    3.5162E+01  8.8031E-03   3.5153E+01  0.000E+00  0.000E+00  0.000E+00  1.30608E+02  4.258E+00  9.031E+00  1.850E-03  9.474E-03 -6.712E-04
   1    4   47     1    47    3.5153E+01  8.8011E-03   3.5144E+01  0.000E+00  0.000E+00  0.000E+00  1.30307E+02  4.257E+00  9.030E+00  1.850E-03  9.470E-03 -6.684E-04
   1    4   48     1    48    3.5144E+01  8.7991E-03   3.5135E+01  0.000E+00  0.000E+00  0.000E+00  1.30007E+02  4.257E+00  9.028E+00  1.850E-03  9.672E-03 -8.732E-04
   1    4   49     1    49    3.5135E+01  8.7971E-03   3.5127E+01  0.000E+00  0.000E+00  0.000E+00  1.29707E+02  4.257E+00  9.026E+00  1.849E-03  9.920E-03 -1.123E-03
   1    4   50     1    50    3.5127E+01  8.7951E-03   3.5118E+01  0.000E+00  0.000E+00  0.000E+00  1.29406E+02  4.256E+00  9.025E+00  1.849E-03  1.005E-02 -1.259E-03
   1    4   51     1    51    3.5118E+01  8.7931E-03   3.5109E+01  0.000E+00  0.000E+00  0.000E+00  1.29106E+02  4.256E+00  9.023E+00  1.849E-03  9.936E-03 -1.143E-03
   1    4   52     1    52    3.5109E+01  8.7911E-03   3.5100E+01  0.000E+00  0.000E+00  0.000E+00  1.28805E+02  4.255E+00  9.021E+00  1.849E-03  9.904E-03 -1.113E-03
   1    4   53     1    53    3.5100E+01  8.7891E-03   3.5091E+01  0.000E+00  0.000E+00  0.000E+00  1.28505E+02  4.255E+00  9.020E+00  1.848E-03  9.900E-03 -1.111E-03
   1    4   54     1    54    3.5091E+01  8.7871E-03   3.5083E+01  0.000E+00  0.000E+00  0.000E+00  1.28204E+02  4.254E+00  9.018E+00  1.848E-03  9.920E-03 -1.133E-03
   1    4   55     1    55    3.5083E+01  8.7851E-03   3.5074E+01  0.000E+00  0.000E+00  0.000E+00  1.27904E+02  4.254E+00  9.016E+00  1.848E-03  1.002E-02 -1.238E-03
   1    4   56     1    56    3.5074E+01  8.7831E-03   3.5065E+01  0.000E+00  0.000E+00  0.000E+00  1.27604E+02  4.254E+00  9.015E+00  1.848E-03  9.888E-03 -1.105E-03
   1    4   57     1    57    3.5065E+01  8.7811E-03   3.5056E+01  0.000E+00  0.000E+00  0.000E+00  1.27303E+02  4.253E+00  9.013E+00  1.847E-03  9.673E-03 -8.924E-04
   1    4   58     1    58    3.5056E+01  8.7791E-03   3.5047E+01  0.000E+00  0.000E+00  0.000E+00  1.27003E+02  4.253E+00  9.011E+00  1.847E-03  9.417E-03 -6.378E-04
   1    4   59     1    59    3.5047E+01  8.7771E-03   3.5039E+01  0.000E+00  0.000E+00  0.000E+00  1.26702E+02  4.252E+00  9.010E+00  1.847E-03  9.413E-03 -6.359E-04
   1    4   60     1    60    3.5039E+01  8.7751E-03   3.5030E+01  0.000E+00  0.000E+00  0.000E+00  1.26402E+02  4.252E+00  9.008E+00  1.847E-03  9.409E-03 -6.335E-04
   1    4   61     1    61    3.5030E+01  8.7731E-03   3.5021E+01  0.000E+00  0.000E+00  0.000E+00  1.26102E+02  4.252E+00  9.006E+00  1.846E-03  9.374E-03 -6.010E-04
   1    4   62     1    62    3.5021E+01  8.7711E-03   3.5012E+01  0.000E+00  0.000E+00  0.000E+00  1.25801E+02  4.251E+00  9.005E+00  1.846E-03  9.188E-03 -4.173E-04
   1    4   63     1    63    3.5012E+01  8.7691E-03   3.5004E+01  0.000E+00  0.000E+00  0.000E+00  1.25501E+02  4.251E+00  9.003E+00  1.846E-03  9.018E-03 -2.491E-04
   1    4   64     1    64    3.5004E+01  8.7671E-03   3.4995E+01  0.000E+00  0.000E+00  0.000E+00  1.25200E+02  4.250E+00  9.001E+00  1.846E-03  8.990E-03 -2.225E-04
   1    4   65     1    65    3.4995E+01  8.7651E-03   3.4986E+01  0.000E+00  0.000E+00  0.000E+00  1.24900E+02  4.250E+00  9.000E+00  1.845E-03  8.986E-03 -2.208E-04
   1    4   66     1    66    3.4986E+01  8.7631E-03   3.4977E+01  0.000E+00  0.000E+00  0.000E+00  1.24600E+02  4.250E+00  8.998E+00  1.845E-03  8.982E-03 -2.190E-04
   1    4   67     1    67    3.4977E+01  8.7611E-03   3.4969E+01  0.000E+00  0.000E+00  0.000E+00  1.24299E+02  4.249E+00  8.996E+00  1.845E-03  8.978E-03 -2.165E-04
   1    4   68     1    68    3.4969E+01  8.7591E-03   3.4960E+01  0.000E+00  0.000E+00  0.000E+00  1.23999E+02  4.249E+00  8.995E+00  1.845E-03  8.973E-03 -2.142E-04
   1    4   69     1    69    3.4960E+01  8.7571E-03   3.4951E+01  0.000E+00  0.000E+00  0.000E+00  1.23698E+02  4.248E+00  8.993E+00  1.844E-03  8.945E-03 -1.880E-04
   1    4   70     1    70    3.4951E+01  8.7551E-03   3.4942E+01  0.000E+00  0.000E+00  0.000E+00  1.23398E+02  4.248E+00  8.991E+00  1.844E-03  8.833E-03 -7.820E-05
   1    4   71     1    71    3.4942E+01  8.7531E-03   3.4934E+01  0.000E+00  0.000E+00  0.000E+00  1.23097E+02  4.247E+00  8.990E+00  1.844E-03  8.729E-03  2.419E-05
   1    4   72     1    72    3.4934E+01  8.7511E-03   3.4925E+01  0.000E+00  0.000E+00  0.000E+00  1.22797E+02  4.247E+00  8.988E+00  1.843E-03  8.646E-03  1.052E-04
   1    4   73     1    73    3.4925E+01  8.7491E-03   3.4916E+01  0.000E+00  0.000E+00  0.000E+00  1.22497E+02  4.247E+00  8.986E+00  1.843E-03  8.645E-03  1.040E-04
   1    4   74     1    74    3.4916E+01  8.7471E-03   3.4907E+01  0.000E+00  0.000E+00  0.000E+00  1.22196E+02  4.246E+00  8.985E+00  1.843E-03  8.645E-03  1.020E-04
   1    4   75     1    75    3.4907E+01  8.7451E-03   3.4899E+01  0.000E+00  0.000E+00  0.000E+00  1.21896E+02  4.246E+00  8.983E+00  1.843E-03  8.646E-03  9.953E-05
   1    4   76     1    76    3.4899E+01  8.7431E-03   3.4890E+01  0.000E+00  0.000E+00  0.000E+00  1.21595E+02  4.245E+00  8.981E+00  1.842E-03  8.646E-03  9.718E-05
   1    4   77     1    77    3.4890E+01  8.7411E-03   3.4881E+01  0.000E+00  0.000E+00  0.000E+00  1.21295E+02  4.245E+00  8.980E+00  1.842E-03  8.646E-03  9.472E-05
   1    4   78     1    78    3.4881E+01  8.7391E-03   3.4872E+01  0.000E+00  0.000E+00  0.000E+00  1.20995E+02  4.245E+00  8.978E+00  1.842E-03  8.647E-03  9.198E-05
   1    4   79     1    79    3.4872E+01  8.7371E-03   3.4864E+01  0.000E+00  0.000E+00  0.000E+00  1.20694E+02  4.244E+00  8.976E+00  1.842E-03  8.648E-03  8.899E-05
   1    4   80     1    80    3.4864E+01  8.7351E-03   3.4855E+01  0.000E+00  0.000E+00  0.000E+00  1.20394E+02  4.244E+00  8.975E+00  1.841E-03  8.649E-03  8.587E-05
   1    4   81     1    81    3.4855E+01  8.7331E-03   3.4846E+01  0.000E+00  0.000E+00  0.000E+00  1.20093E+02  4.243E+00  8.973E+00  1.841E-03  8.650E-03  8.268E-05
   1    4   82     1    82    3.4846E+01  8.7311E-03   3.4837E+01  0.000E+00  0.000E+00  0.000E+00  1.19793E+02  4.243E+00  8.971E+00  1.841E-03  8.652E-03  7.944E-05
   1    4   83     1    83    3.4837E+01  8.7292E-03   3.4829E+01  0.000E+00  0.000E+00  0.000E+00  1.19492E+02  4.242E+00  8.970E+00  1.841E-03  8.653E-03  7.623E-05
   1    4   84     1    84    3.4829E+01  8.7272E-03   3.4820E+01  0.000E+00  0.000E+00  0.000E+00  1.19192E+02  4.242E+00  8.968E+00  1.840E-03  8.654E-03  7.311E-05
   1    4   85     1    85    3.4820E+01  8.7252E-03   3.4811E+01  0.000E+00  0.000E+00  0.000E+00  1.18892E+02  4.242E+00  8.966E+00  1.840E-03  8.655E-03  7.013E-05
   1    4   86     1    86    3.4811E+01  8.7232E-03   3.4802E+01  0.000E+00  0.000E+00  0.000E+00  1.18591E+02  4.241E+00  8.965E+00  1.840E-03  8.656E-03  6.735E-05
   1    4   87     1    87    3.4802E+01  8.7212E-03   3.4794E+01  0.000E+00  0.000E+00  0.000E+00  1.18291E+02  4.241E+00  8.963E+00  1.840E-03  8.656E-03  6.479E-05
   1    4   88     1    88    3.4794E+01  8.7192E-03   3.4785E+01  0.000E+00  0.000E+00  0.000E+00  1.17990E+02  4.240E+00  8.962E+00  1.839E-03  8.657E-03  6.241E-05
   1    4   89     1    89    3.4785E+01  8.7172E-03   3.4776E+01  0.000E+00  0.000E+00  0.000E+00  1.17690E+02  4.240E+00  8.960E+00  1.839E-03  8.657E-03  6.018E-05
   1    4   90     1    90    3.4776E+01  8.7152E-03   3.4768E+01  0.000E+00  0.000E+00  0.000E+00  1.17390E+02  4.240E+00  8.958E+00  1.839E-03  8.657E-03  5.801E-05
   1    4   91     1    91    3.4768E+01  8.7132E-03   3.4759E+01  0.000E+00  0.000E+00  0.000E+00  1.17089E+02  4.239E+00  8.957E+00  1.839E-03  8.657E-03  5.576E-05
   1    4   92     1    92    3.4759E+01  8.7112E-03   3.4750E+01  0.000E+00  0.000E+00  0.000E+00  1.16789E+02  4.239E+00  8.955E+00  1.838E-03  8.658E-03  5.323E-05
   1    4   93     1    93    3.4750E+01  8.7092E-03   3.4741E+01  0.000E+00  0.000E+00  0.000E+00  1.16488E+02  4.238E+00  8.953E+00  1.838E-03  8.659E-03  5.022E-05
   1    4   94     1    94    3.4741E+01  8.7072E-03   3.4733E+01  0.000E+00  0.000E+00  0.000E+00  1.16188E+02  4.238E+00  8.952E+00  1.838E-03  8.661E-03  4.646E-05
   1    4   95     1    95    3.4733E+01  8.7053E-03   3.4724E+01  0.000E+00  0.000E+00  0.000E+00  1.15887E+02  4.237E+00  8.950E+00  1.838E-03  8.664E-03  4.172E-05
   1    4   96     1    96    3.4724E+01  8.7033E-03   3.4715E+01  0.000E+00  0.000E+00  0.000E+00  1.15587E+02  4.237E+00  8.948E+00  1.837E-03  8.667E-03  3.579E-05
   1    4   97     1    97    3.4715E+01  8.7013E-03   3.4707E+01  0.000E+00  0.000E+00  0.000E+00  1.15287E+02  4.237E+00  8.947E+00  1.837E-03  8.673E-03  2.855E-05
   1    4   98     1    98    3.4707E+01  8.6993E-03   3.4698E+01  0.000E+00  0.000E+00  0.000E+00  1.14986E+02  4.236E+00  8.945E+00  1.837E-03  8.679E-03  2.002E-05
   1    4   99     1    99    3.4698E+01  8.6973E-03   3.4689E+01  0.000E+00  0.000E+00  0.000E+00  1.14686E+02  4.236E+00  8.943E+00  1.836E-03  8.687E-03  1.039E-05
   1    4  100     1   100    3.4689E+01  8.6953E-03   3.4681E+01  0.000E+00  0.000E+00  0.000E+00  1.14385E+02  4.235E+00  8.942E+00  1.836E-03  0.000E+00  0.000E+00



1
  VOLUMETRIC BUDGET FOR UNSATURATED ZONE BENEATH STREAMS AT END OF TIME STEP    30 STRESS PERIOD  20
  ------------------------------------------------------------------------------------------------

    CUMULATIVE VOLUMES             L**3    RATES FOR THIS TIME STEP         L**3/T
    ------------------                     ------------------------


          STREAM LOSS =     25252172.0000            STREAM LOSS =            0.8794
    CHANGE IN STORAGE =      2751257.0000      CHANGE IN STORAGE =       -1.6853E-02
       RECHARGE TO GW =     22505832.0000         RECHARGE TO GW =            0.8963

             TOTAL IN =     25252172.0000               TOTAL IN =            0.8963

            TOTAL OUT =     25257088.0000              TOTAL OUT =            0.8963

             IN - OUT =        -4916.0000               IN - OUT =        5.9605E-08

  PERCENT DISCREPANCY =           -0.00      PERCENT DISCREPANCY =             0.00



1
              HEAD IN LAYER   1 AT END OF TIME STEP  30 IN STRESS PERIOD   20
  ---------------------------------------------------------------------------

          1      2      3      4      5      6      7      8      9     10
         11     12     13     14     15     16     17     18     19     20
         21     22     23     24     25     26     27     28     29     30
         31     32     33     34     35     36     37     38     39     40
         41     42     43     44     45     46     47     48     49     50
         51     52     53     54     55     56     57     58     59     60
         61     62     63     64     65     66     67     68     69     70
         71     72     73     74     75     76     77     78     79     80
         81     82     83     84     85     86     87     88     89     90
         91     92     93     94     95     96     97     98     99    100
 .........................................................................
   1   103.2  103.2  103.1  103.0  102.8  102.6  102.4  102.1  101.8  101.4
       101.0  100.5  100.0   99.5   98.9   98.2   97.5   96.8   96.0   95.1
        94.2   93.3   92.3   91.2   90.0   88.8   87.5   86.2   84.7   83.2
        81.6   79.9   78.1   76.2   74.2   72.1   69.9   67.5   64.9   62.2
        59.3   56.2   52.8   49.1   45.0   40.4   35.2   28.9   21.2   12.3
        11.6   12.3   12.9   13.7   16.2   21.4   26.9   32.0   36.4   40.4
        43.9   47.1   50.0   52.6   55.1   57.3   59.4   61.3   63.1   64.7
        66.2   67.6   68.9   70.1   71.2   72.2   73.1   73.9   74.7   75.4
        75.9   76.5   76.9   77.3   77.6   77.9   78.1   78.2   78.2   78.2
        78.2   78.1   77.9   77.6   77.3   77.0   76.6   76.1   75.6   75.0
   2   103.2  103.2  103.1  103.0  102.8  102.6  102.4  102.1  101.8  101.4
       101.0  100.5  100.0   99.5   98.9   98.2   97.5   96.8   96.0   95.2
        94.2   93.3   92.3   91.2   90.0   88.8   87.5   86.2   84.7   83.2
        81.6   79.9   78.1   76.2   74.2   72.1   69.9   67.5   65.0   62.2
        59.3   56.2   52.8   49.1   45.0   40.5   35.2   29.0   20.8    9.4
        11.2   12.4   12.8   13.3   15.2   21.0   26.8   32.0   36.4   40.4
        43.9   47.1   50.0   52.6   55.1   57.3   59.4   61.3   63.1   64.7
        66.2   67.6   68.9   70.1   71.2   72.2   73.1   73.9   74.7   75.4
        76.0   76.5   76.9   77.3   77.6   77.9   78.1   78.2   78.3   78.3
        78.2   78.1   77.9   77.7   77.4   77.0   76.6   76.1   75.6   75.0
   3   103.3  103.2  103.1  103.0  102.9  102.7  102.4  102.1  101.8  101.4
       101.0  100.6  100.0   99.5   98.9   98.3   97.6   96.8   96.0   95.2
        94.3   93.3   92.3   91.2   90.0   88.8   87.5   86.2   84.7   83.2
        81.6   79.9   78.2   76.3   74.3   72.1   69.9   67.5   65.0   62.3
        59.4   56.2   52.8   49.1   45.1   40.5   35.3   29.1   20.5    0.0
        11.0   12.5   12.7   12.5   13.1   20.3   26.7   31.9   36.5   40.4
        44.0   47.1   50.0   52.7   55.1   57.3   59.4   61.3   63.1   64.7
        66.3   67.7   68.9   70.1   71.2   72.2   73.1   74.0   74.7   75.4
        76.0   76.5   76.9   77.3   77.6   77.9   78.1   78.2   78.3   78.3
        78.2   78.1   77.9   77.7   77.4   77.0   76.6   76.1   75.6   75.0
   4   103.3  103.2  103.2  103.0  102.9  102.7  102.4  102.1  101.8  101.4
       101.0  100.6  100.1   99.5   98.9   98.3   97.6   96.8   96.0   95.2
        94.3   93.3   92.3   91.2   90.1   88.8   87.6   86.2   84.8   83.3
        81.7   80.0   78.2   76.3   74.3   72.2   69.9   67.5   65.0   62.3
        59.4   56.3   52.9   49.2   45.1   40.6   35.4   29.4   21.5    9.9
        12.2   12.9   12.7   11.7    9.1   19.5   26.5   31.9   36.5   40.5
        44.0   47.2   50.1   52.7   55.1   57.4   59.4   61.4   63.1   64.8
        66.3   67.7   69.0   70.2   71.2   72.2   73.2   74.0   74.7   75.4
        76.0   76.5   77.0   77.4   77.7   77.9   78.1   78.2   78.3   78.3
        78.2   78.1   77.9   77.7   77.4   77.0   76.6   76.1   75.6   75.0
   5   103.3  103.2  103.1  103.0  102.9  102.7  102.4  102.1  101.8  101.4
       101.0  100.6  100.0   99.5   98.9   98.3   97.6   96.8   96.0   95.2
        94.3   93.3   92.3   91.2   90.0   88.8   87.5   86.2   84.7   83.2
        81.6   79.9   78.2   76.3   74.3   72.1   69.9   67.5   65.0   62.3
        59.4   56.2   52.8   49.2   45.1   40.6   35.5   29.5   22.4   14.2
        13.2   13.0   12.4   10.6    0.0   18.5   26.3   31.8   36.4   40.4
        43.9   47.1   50.0   52.7   55.1   57.3   59.4   61.3   63.1   64.7
        66.3   67.7   68.9   70.1   71.2   72.2   73.1   74.0   74.7   75.4
        76.0   76.5   76.9   77.3   77.6   77.9   78.1   78.2   78.3   78.3
        78.2   78.1   77.9   77.7   77.4   77.0   76.6   76.1   75.6   75.0
   6   103.2  103.2  103.1  103.0  102.8  102.6  102.4  102.1  101.8  101.4
       101.0  100.5  100.0   99.5   98.9   98.2   97.5   96.8   96.0   95.2
        94.2   93.3   92.3   91.2   90.0   88.8   87.5   86.2   84.7   83.2
        81.6   79.9   78.1   76.2   74.2   72.1   69.9   67.5   65.0   62.2
        59.3   56.2   52.8   49.1   45.1   40.6   35.5   29.7   23.2   16.6
        14.1   13.1   12.3   10.8    8.6   18.9   26.1   31.7   36.4   40.4
        43.9   47.1   50.0   52.6   55.1   57.3   59.4   61.3   63.1   64.7
        66.2   67.6   68.9   70.1   71.2   72.2   73.1   73.9   74.7   75.4
        76.0   76.5   76.9   77.3   77.6   77.9   78.1   78.2   78.3   78.3
        78.2   78.1   77.9   77.7   77.4   77.0   76.6   76.1   75.6   75.0
   7   103.2  103.2  103.1  103.0  102.8  102.6  102.4  102.1  101.8  101.4
       101.0  100.5  100.0   99.5   98.9   98.2   97.5   96.8   96.0   95.1
        94.2   93.3   92.3   91.2   90.0   88.8   87.5   86.2   84.7   83.2
        81.6   79.9   78.1   76.2   74.2   72.1   69.9   67.5   64.9   62.2
        59.3   56.2   52.8   49.1   45.1   40.6   35.5   29.8   23.6   17.6
        14.6   13.2   12.2   11.1   11.3   19.2   26.1   31.7   36.3   40.3
        43.9   47.1   50.0   52.6   55.1   57.3   59.4   61.3   63.1   64.7
        66.2   67.6   68.9   70.1   71.2   72.2   73.1   73.9   74.7   75.4
        75.9   76.5   76.9   77.3   77.6   77.9   78.1   78.2   78.2   78.2
        78.2   78.1   77.9   77.6   77.3   77.0   76.6   76.1   75.6   75.0

 HEAD WILL BE SAVED ON UNIT   51 AT END OF TIME STEP   30, STRESS PERIOD   20
1
  VOLUMETRIC BUDGET FOR ENTIRE MODEL AT END OF TIME STEP   30, STRESS PERIOD  20
  ------------------------------------------------------------------------------

     CUMULATIVE VOLUMES      L**3       RATES FOR THIS TIME STEP      L**3/T
     ------------------                 ------------------------

           IN:                                      IN:
           ---                                      ---
             STORAGE     =    82389808.0000               STORAGE     =           0.2504
       CONSTANT HEAD     =           0.0000         CONSTANT HEAD     =           0.0000
               WELLS     =           0.0000                 WELLS     =           0.0000
     HEAD DEP BOUNDS     =           0.0000       HEAD DEP BOUNDS     =           0.0000
      STREAM LEAKAGE     =    22505748.0000        STREAM LEAKAGE     =           0.8963

                TOTAL IN =   104895552.0000                  TOTAL IN =           1.1467

          OUT:                                     OUT:
          ----                                     ----
             STORAGE     =     3026918.0000               STORAGE     =           0.0000
       CONSTANT HEAD     =           0.0000         CONSTANT HEAD     =           0.0000
               WELLS     =    86214216.0000                 WELLS     =           1.0324
     HEAD DEP BOUNDS     =    15654440.0000       HEAD DEP BOUNDS     =           0.1143
      STREAM LEAKAGE     =           0.0000        STREAM LEAKAGE     =           0.0000

               TOTAL OUT =   104895576.0000                 TOTAL OUT =           1.1467

                IN - OUT =         -24.0000                  IN - OUT =           0.0000

     PERCENT DISCREPANCY =          -0.00         PERCENT DISCREPANCY =           0.00






         TIME SUMMARY AT END OF TIME STEP   30 IN STRESS PERIOD   20
                    SECONDS     MINUTES      HOURS       DAYS        YEARS
                    -----------------------------------------------------------
   TIME STEP LENGTH 2.49961E+05  4166.0      69.434      2.8931     7.92080E-03
 STRESS PERIOD TIME 2.59200E+06  43200.      720.00      30.000     8.21355E-02
         TOTAL TIME 5.18400E+07 8.63999E+05  14400.      600.00      1.6427    
1
1
                            STRESS PERIOD NO.   21, LENGTH =   2592000.    
                            -----------------------------------------------

                              NUMBER OF TIME STEPS =    30

                               MULTIPLIER FOR DELT =     1.100

                            INITIAL TIME STEP SIZE =   15757.40    

 REUSING NON-PARAMETER WELLS FROM LAST STRESS PERIOD

      1 WELL 

 REUSING NON-PARAMETER GHB CELLS FROM LAST STRESS PERIOD

      7 GHB CELLS



 CLASSIFICATION & COUNT OF STREAM SEGMENTS BASED ON SOURCE OF INFLOW:

                HEADWATER     DIVERSION     RECEIVES TRIBUTARY FLOW
                ---------     ---------     -----------------------
                     1              0               0



                    INPUT DATA FOR EACH STREAM SEGMENT
 ---------------------------------------------------------------------------------------------

 SEGMENT    SEG.     INFLOW   OVERLAND   STREAM    STREAM   ICALC  OUTFLOW  DIVERSION PRIORITY
    NO.    LENGTH     RATE     RUNOFF      ET       PPT.    METH.  TO SEG.  FROM SEG.    NO.

      1  2.000E+04 1.263E+01 0.000E+00 0.000E+00 0.000E+00    2        0        0        0


         STREAMBED PROPERTIES AND STREAM DIMENSIONS

 SEGMENT     BED HYD. COND.      BED THICKNESS     ELEV.-TOP OF BED     WIDTH OF STREAM     DEPTH OF STREAM    STREAM ROUGHNESS
    No.     UPPER     LOWER     UPPER     LOWER     UPPER     LOWER     UPPER     LOWER     UPPER     LOWER   CHANNEL      BANK

     1  3.500E-07 3.500E-07                                                                                 3.000E-02 4.000E-02

  EIGHT POINT CROSS-SECTION DATA FOR SEGMENTS WITH ICALC = 2
    X VALUES X VALUES START FROM LEFT SIDE LOOKING DOWNSTREAM

     SEGMENT NO.        X1        X2        X3        X4        X5        X6        X7        X8
            1      0.000E+00 2.000E+00 4.000E+00 6.000E+00 8.000E+00 1.000E+01 1.200E+01 1.400E+01

    Z VALUES ARE RELATIVE TO STREAMBED ELEVATION

     SEGMENT NO.          Z1        Z2        Z3        Z4        Z5        Z6        Z7        Z8
            1      6.000E+00 4.500E+00 3.500E+00 0.000E+00 3.000E-01 3.500E+00 4.500E+00 6.000E+00



 
 SOLVING FOR HEAD 
                                                   Max.-Head-Change                         Max.-Flux-Residual
  Residual-Control   Outer-Iter.   Inner-Iter.     Column Row Layer    Maximum-Head-Change  Column Row Layer    Maximum-Flux-Residual          L2-NORM 
          0                 1           2            69    4     1      -0.3914563335E-02      50    3    1         0.1536072128E-01      0.2268879996E-01
          0                 2           2            72    7     1       0.3359218607E-03      50    3    1        -0.1578230982E-02      0.2342142646E-02
          0                 3           1            72    1     1      -0.2996648053E-04      50    3    1         0.1416003976E-03      0.2100950780E-03
          0                 4           1            72    1     1       0.2378540056E-05      50    3    1        -0.1135015459E-04      0.1684701379E-04
          0                 5           1            72    1     1      -0.1656933953E-06      50    3    1         0.7973641069E-06      0.1183358727E-05

    ------------------------------------------------
       NWT REQUIRED            5 OUTER ITERATIONS 
       AND A TOTAL OF          7 INNER ITERATIONS.
    ------------------------------------------------

 NO OUTPUT CONTROL FOR STRESS PERIOD   21   TIME STEP    1
 
 WELLS WITH REDUCED PUMPING FOR STRESS PERIOD    21 TIME STEP     1
   LAY   ROW   COL         APPL.Q          ACT.Q        GW-HEAD       CELL-BOT
     1     3    50  -0.141995E+01  -0.560064E+00   0.480638E-03   0.000000E+00
     1     5    55  -0.141995E+01  -0.472150E+00   0.428888E-03   0.000000E+00
 
 
 SOLVING FOR HEAD 
                                                   Max.-Head-Change                         Max.-Flux-Residual
  Residual-Control   Outer-Iter.   Inner-Iter.     Column Row Layer    Maximum-Head-Change  Column Row Layer    Maximum-Flux-Residual          L2-NORM 
          0                 1           2            70    5     1      -0.3889346208E-02      70    5    1        -0.7559218586E-03      0.1054318402E-01
          0                 2           2            72    7     1       0.3686431701E-03      70    5    1         0.7559080236E-04      0.1096044372E-02
          0                 3           1            72    1     1      -0.3283587652E-04      70    5    1        -0.6803139307E-05      0.9929345748E-04
          0                 4           1            72    1     1       0.2606510730E-05      70    3    1         0.5449915008E-06      0.7967762927E-05
          0                 5           1            72    1     1      -0.1815724760E-06      70    3    1        -0.3831253714E-07      0.5597341146E-06

    ------------------------------------------------
       NWT REQUIRED            5 OUTER ITERATIONS 
       AND A TOTAL OF          7 INNER ITERATIONS.
    ------------------------------------------------

 NO OUTPUT CONTROL FOR STRESS PERIOD   21   TIME STEP    2
 
 WELLS WITH REDUCED PUMPING FOR STRESS PERIOD    21 TIME STEP     2
   LAY   ROW   COL         APPL.Q          ACT.Q        GW-HEAD       CELL-BOT
     1     3    50  -0.141991E+01  -0.559996E+00   0.480612E-03   0.000000E+00
     1     5    55  -0.141991E+01  -0.472070E+00   0.428852E-03   0.000000E+00
 
 
 SOLVING FOR HEAD 
                                                   Max.-Head-Change                         Max.-Flux-Residual
  Residual-Control   Outer-Iter.   Inner-Iter.     Column Row Layer    Maximum-Head-Change  Column Row Layer    Maximum-Flux-Residual          L2-NORM 
          0                 1           2            70    5     1      -0.4244730246E-02      70    5    1        -0.7569241794E-03      0.1054367951E-01
          0                 2           2            71    7     1       0.4045280417E-03      70    5    1         0.7569047955E-04      0.1098212696E-02
          0                 3           1            71    7     1      -0.3598039659E-04      70    5    1        -0.6812111584E-05      0.1003380555E-03
          0                 4           1            71    1     1       0.2856104674E-05      70    3    1         0.5457460777E-06      0.8055306587E-05
          0                 5           1            71    1     1      -0.1989601108E-06      70    3    1        -0.3836573015E-07      0.5659822301E-06

    ------------------------------------------------
       NWT REQUIRED            5 OUTER ITERATIONS 
       AND A TOTAL OF          7 INNER ITERATIONS.
    ------------------------------------------------

 NO OUTPUT CONTROL FOR STRESS PERIOD   21   TIME STEP    3
 
 WELLS WITH REDUCED PUMPING FOR STRESS PERIOD    21 TIME STEP     3
   LAY   ROW   COL         APPL.Q          ACT.Q        GW-HEAD       CELL-BOT
     1     3    50  -0.142011E+01  -0.559931E+00   0.480533E-03   0.000000E+00
     1     5    55  -0.142011E+01  -0.471991E+00   0.428771E-03   0.000000E+00
 
 
 SOLVING FOR HEAD 
                                                   Max.-Head-Change                         Max.-Flux-Residual
  Residual-Control   Outer-Iter.   Inner-Iter.     Column Row Layer    Maximum-Head-Change  Column Row Layer    Maximum-Flux-Residual          L2-NORM 
          0                 1           2            71    7     1      -0.4669178253E-02      70    5    1        -0.7506700708E-03      0.1055824437E-01
          0                 2           2            71    7     1       0.4440427187E-03      70    5    1         0.7506492800E-04      0.1098828538E-02
          0                 3           1            71    1     1      -0.3941152903E-04      73    4    1         0.7057771620E-05      0.1012589534E-03
          0                 4           1            71    1     1       0.3127970118E-05      73    4    1        -0.5686891775E-06      0.8139745128E-05
          0                 5           1            71    1     1      -0.2179004003E-06      73    4    1         0.3996003528E-07      0.5720065409E-06

    ------------------------------------------------
       NWT REQUIRED            5 OUTER ITERATIONS 
       AND A TOTAL OF          7 INNER ITERATIONS.
    ------------------------------------------------

 NO OUTPUT CONTROL FOR STRESS PERIOD   21   TIME STEP    4
 
 WELLS WITH REDUCED PUMPING FOR STRESS PERIOD    21 TIME STEP     4
   LAY   ROW   COL         APPL.Q          ACT.Q        GW-HEAD       CELL-BOT
     1     3    50  -0.141993E+01  -0.559860E+00   0.480535E-03   0.000000E+00
     1     5    55  -0.141993E+01  -0.471911E+00   0.428761E-03   0.000000E+00
 
 
 SOLVING FOR HEAD 
                                                   Max.-Head-Change                         Max.-Flux-Residual
  Residual-Control   Outer-Iter.   Inner-Iter.     Column Row Layer    Maximum-Head-Change  Column Row Layer    Maximum-Flux-Residual          L2-NORM 
          0                 1           2            68    4     1      -0.5606114215E-02      70    5    1        -0.7444294194E-03      0.1059055451E-01
          0                 2           2            71    7     1       0.4865538108E-03      70    5    1         0.7444084066E-04      0.1100149471E-02
          0                 3           1            71    1     1      -0.4307676680E-04      73    4    1         0.7461415999E-05      0.1022528294E-03
          0                 4           1            71    1     1       0.3417588805E-05      73    4    1        -0.6078110921E-06      0.8237065725E-05
          0                 5           1            71    1     1      -0.2380788376E-06      73    4    1         0.4270483700E-07      0.5789969997E-06

    ------------------------------------------------
       NWT REQUIRED            5 OUTER ITERATIONS 
       AND A TOTAL OF          7 INNER ITERATIONS.
    ------------------------------------------------

 NO OUTPUT CONTROL FOR STRESS PERIOD   21   TIME STEP    5
 
 WELLS WITH REDUCED PUMPING FOR STRESS PERIOD    21 TIME STEP     5
   LAY   ROW   COL         APPL.Q          ACT.Q        GW-HEAD       CELL-BOT
     1     3    50  -0.142010E+01  -0.559781E+00   0.480456E-03   0.000000E+00
     1     5    55  -0.142010E+01  -0.471817E+00   0.428678E-03   0.000000E+00
 
 
 SOLVING FOR HEAD 
                                                   Max.-Head-Change                         Max.-Flux-Residual
  Residual-Control   Outer-Iter.   Inner-Iter.     Column Row Layer    Maximum-Head-Change  Column Row Layer    Maximum-Flux-Residual          L2-NORM 
          0                 1           2            71    7     1      -0.5655574839E-02      68    5    1        -0.7510375078E-03      0.1058678730E-01
          0                 2           2            71    7     1       0.5324141572E-03      68    5    1         0.7510063930E-04      0.1103292027E-02
          0                 3           1            71    1     1      -0.4699683455E-04      73    4    1         0.7853380342E-05      0.1034819754E-03
          0                 4           1            71    1     1       0.3726207212E-05      73    4    1        -0.6483811479E-06      0.8359239887E-05
          0                 5           1            71    1     1      -0.2595726214E-06      73    4    1         0.4559459477E-07      0.5879137966E-06

    ------------------------------------------------
       NWT REQUIRED            5 OUTER ITERATIONS 
       AND A TOTAL OF          7 INNER ITERATIONS.
    ------------------------------------------------

 NO OUTPUT CONTROL FOR STRESS PERIOD   21   TIME STEP    6
 
 WELLS WITH REDUCED PUMPING FOR STRESS PERIOD    21 TIME STEP     6
   LAY   ROW   COL         APPL.Q          ACT.Q        GW-HEAD       CELL-BOT
     1     3    50  -0.141992E+01  -0.559698E+00   0.480450E-03   0.000000E+00
     1     5    55  -0.141992E+01  -0.471714E+00   0.428654E-03   0.000000E+00
 
 
 SOLVING FOR HEAD 
                                                   Max.-Head-Change                         Max.-Flux-Residual
  Residual-Control   Outer-Iter.   Inner-Iter.     Column Row Layer    Maximum-Head-Change  Column Row Layer    Maximum-Flux-Residual          L2-NORM 
          0                 1           2            71    7     1      -0.6216358264E-02      68    5    1        -0.7416756190E-03      0.1058574667E-01
          0                 2           2            71    7     1       0.5819171697E-03      68    5    1         0.7416396759E-04      0.1104433839E-02
          0                 3           1            70    1     1      -0.5120040022E-04      73    4    1         0.8232573594E-05      0.1045311836E-03
          0                 4           1            70    1     1       0.4056642649E-05      73    4    1        -0.6900469085E-06      0.8474067803E-05
          0                 5           1            70    1     1      -0.2825728491E-06      73    4    1         0.4863374237E-07      0.5964856956E-06

    ------------------------------------------------
       NWT REQUIRED            5 OUTER ITERATIONS 
       AND A TOTAL OF          7 INNER ITERATIONS.
    ------------------------------------------------

 NO OUTPUT CONTROL FOR STRESS PERIOD   21   TIME STEP    7
 
 WELLS WITH REDUCED PUMPING FOR STRESS PERIOD    21 TIME STEP     7
   LAY   ROW   COL         APPL.Q          ACT.Q        GW-HEAD       CELL-BOT
     1     3    50  -0.142004E+01  -0.559611E+00   0.480377E-03   0.000000E+00
     1     5    55  -0.142004E+01  -0.471605E+00   0.428572E-03   0.000000E+00
 
 
 SOLVING FOR HEAD 
                                                   Max.-Head-Change                         Max.-Flux-Residual
  Residual-Control   Outer-Iter.   Inner-Iter.     Column Row Layer    Maximum-Head-Change  Column Row Layer    Maximum-Flux-Residual          L2-NORM 
          0                 1           2            71    7     1      -0.6828772494E-02      70    5    1        -0.7347644184E-03      0.1058115296E-01
          0                 2           2            71    7     1       0.6354289171E-03      70    5    1         0.7347394773E-04      0.1104564657E-02
          0                 3           1            70    1     1      -0.5572260128E-04      72    4    1         0.8598026891E-05      0.1055147544E-03
          0                 4           1            70    1     1       0.4409481819E-05      73    4    1        -0.7324560567E-06      0.8591528381E-05
          0                 5           1            70    1     1      -0.3070936283E-06      73    4    1         0.5180837093E-07      0.6054889417E-06

    ------------------------------------------------
       NWT REQUIRED            5 OUTER ITERATIONS 
       AND A TOTAL OF          7 INNER ITERATIONS.
    ------------------------------------------------

 NO OUTPUT CONTROL FOR STRESS PERIOD   21   TIME STEP    8
 
 WELLS WITH REDUCED PUMPING FOR STRESS PERIOD    21 TIME STEP     8
   LAY   ROW   COL         APPL.Q          ACT.Q        GW-HEAD       CELL-BOT
     1     3    50  -0.142006E+01  -0.559521E+00   0.480325E-03   0.000000E+00
     1     5    55  -0.142006E+01  -0.471489E+00   0.428505E-03   0.000000E+00
 
 
 SOLVING FOR HEAD 
                                                   Max.-Head-Change                         Max.-Flux-Residual
  Residual-Control   Outer-Iter.   Inner-Iter.     Column Row Layer    Maximum-Head-Change  Column Row Layer    Maximum-Flux-Residual          L2-NORM 
          0                 1           2            67    4     1      -0.7656068120E-02      71    5    1        -0.7328992774E-03      0.1059589831E-01
          0                 2           2            70    7     1       0.6934077771E-03      71    5    1         0.7328733043E-04      0.1104511646E-02
          0                 3           1            70    1     1      -0.6055584237E-04      72    4    1         0.8953975117E-05      0.1064867300E-03
          0                 4           1            70    1     1       0.4784088526E-05      73    4    1        -0.7752639952E-06      0.8715079750E-05
          0                 5           1            70    1     1      -0.3330677379E-06      73    4    1         0.5510402623E-07      0.6152168854E-06

    ------------------------------------------------
       NWT REQUIRED            5 OUTER ITERATIONS 
       AND A TOTAL OF          7 INNER ITERATIONS.
    ------------------------------------------------

 NO OUTPUT CONTROL FOR STRESS PERIOD   21   TIME STEP    9
 
 WELLS WITH REDUCED PUMPING FOR STRESS PERIOD    21 TIME STEP     9
   LAY   ROW   COL         APPL.Q          ACT.Q        GW-HEAD       CELL-BOT
     1     3    50  -0.141994E+01  -0.559426E+00   0.480299E-03   0.000000E+00
     1     5    55  -0.141994E+01  -0.471366E+00   0.428459E-03   0.000000E+00
 
 
 SOLVING FOR HEAD 
                                                   Max.-Head-Change                         Max.-Flux-Residual
  Residual-Control   Outer-Iter.   Inner-Iter.     Column Row Layer    Maximum-Head-Change  Column Row Layer    Maximum-Flux-Residual          L2-NORM 
          0                 1           2            71    7     1      -0.8230888279E-02      67    5    1        -0.7316738548E-03      0.1059157353E-01
          0                 2           2            70    7     1       0.7563917049E-03      67    5    1         0.7316238839E-04      0.1106572554E-02
          0                 3           1            70    1     1      -0.6573767152E-04      72    4    1         0.9294417980E-05      0.1076201485E-03
          0                 4           1            70    1     1       0.5182496540E-05      73    4    1        -0.8181382274E-06      0.8857087165E-05
          0                 5           1            70    1     1      -0.3606023397E-06      73    4    1         0.5850240470E-07      0.6265639470E-06

    ------------------------------------------------
       NWT REQUIRED            5 OUTER ITERATIONS 
       AND A TOTAL OF          7 INNER ITERATIONS.
    ------------------------------------------------

 NO OUTPUT CONTROL FOR STRESS PERIOD   21   TIME STEP   10
 
 WELLS WITH REDUCED PUMPING FOR STRESS PERIOD    21 TIME STEP    10
   LAY   ROW   COL         APPL.Q          ACT.Q        GW-HEAD       CELL-BOT
     1     3    50  -0.142003E+01  -0.559325E+00   0.480225E-03   0.000000E+00
     1     5    55  -0.142003E+01  -0.471234E+00   0.428370E-03   0.000000E+00
 
 
 SOLVING FOR HEAD 
                                                   Max.-Head-Change                         Max.-Flux-Residual
  Residual-Control   Outer-Iter.   Inner-Iter.     Column Row Layer    Maximum-Head-Change  Column Row Layer    Maximum-Flux-Residual          L2-NORM 
          0                 1           2            71    7     1      -0.9032745750E-02      71    6    1        -0.7301541986E-03      0.1061082593E-01
          0                 2           2            70    7     1       0.8246212710E-03      71    6    1         0.7301383902E-04      0.1106546552E-02
          0                 3           1            70    1     1      -0.7128593392E-04      72    4    1         0.9618638288E-05      0.1085399117E-03
          0                 4           1            70    1     1       0.5605211347E-05      73    4    1        -0.8607592026E-06      0.8989473574E-05
          0                 5           1            70    1     1      -0.3896878930E-06      73    4    1         0.6198176905E-07      0.6376166223E-06

    ------------------------------------------------
       NWT REQUIRED            5 OUTER ITERATIONS 
       AND A TOTAL OF          7 INNER ITERATIONS.
    ------------------------------------------------

 NO OUTPUT CONTROL FOR STRESS PERIOD   21   TIME STEP   11
 
 WELLS WITH REDUCED PUMPING FOR STRESS PERIOD    21 TIME STEP    11
   LAY   ROW   COL         APPL.Q          ACT.Q        GW-HEAD       CELL-BOT
     1     3    50  -0.142005E+01  -0.559214E+00   0.480163E-03   0.000000E+00
     1     5    55  -0.142005E+01  -0.471091E+00   0.428288E-03   0.000000E+00
 
 
 SOLVING FOR HEAD 
                                                   Max.-Head-Change                         Max.-Flux-Residual
  Residual-Control   Outer-Iter.   Inner-Iter.     Column Row Layer    Maximum-Head-Change  Column Row Layer    Maximum-Flux-Residual          L2-NORM 
          0                 1           2            71    7     1      -0.9910556129E-02      71    7    1        -0.7288512934E-03      0.1064032619E-01
          0                 2           2            70    7     1       0.8985849673E-03      71    7    1         0.7288395613E-04      0.1108404884E-02
          0                 3           1            70    1     1      -0.7722800128E-04      72    4    1         0.9926102882E-05      0.1095889842E-03
          0                 4           1            70    1     1       0.6053271233E-05      73    4    1        -0.9028233698E-06      0.9137095886E-05
          0                 5           1            70    1     1      -0.4203427706E-06      73    4    1         0.6551770682E-07      0.6501197991E-06

    ------------------------------------------------
       NWT REQUIRED            5 OUTER ITERATIONS 
       AND A TOTAL OF          7 INNER ITERATIONS.
    ------------------------------------------------

 NO OUTPUT CONTROL FOR STRESS PERIOD   21   TIME STEP   12
 
 WELLS WITH REDUCED PUMPING FOR STRESS PERIOD    21 TIME STEP    12
   LAY   ROW   COL         APPL.Q          ACT.Q        GW-HEAD       CELL-BOT
     1     3    50  -0.141995E+01  -0.559082E+00   0.480113E-03   0.000000E+00
     1     5    55  -0.141995E+01  -0.470922E+00   0.428214E-03   0.000000E+00
 
 
 SOLVING FOR HEAD 
                                                   Max.-Head-Change                         Max.-Flux-Residual
  Residual-Control   Outer-Iter.   Inner-Iter.     Column Row Layer    Maximum-Head-Change  Column Row Layer    Maximum-Flux-Residual          L2-NORM 
          0                 1           2            71    7     1      -0.1087146890E-01      71    7    1        -0.7274151291E-03      0.1063362964E-01
          0                 2           2            70    7     1       0.9788444407E-03      71    7    1         0.7274012904E-04      0.1110597512E-02
          0                 3           1            70    1     1      -0.8359599706E-04      72    4    1         0.1021641631E-04      0.1106988566E-03
          0                 4           1            70    1     1       0.6527902522E-05      73    4    1        -0.9440429825E-06      0.9292076513E-05
          0                 5           1            70    1     1      -0.4525866264E-06      73    4    1         0.6908355488E-07      0.6635272663E-06

    ------------------------------------------------
       NWT REQUIRED            5 OUTER ITERATIONS 
       AND A TOTAL OF          7 INNER ITERATIONS.
    ------------------------------------------------

 NO OUTPUT CONTROL FOR STRESS PERIOD   21   TIME STEP   13
 
 WELLS WITH REDUCED PUMPING FOR STRESS PERIOD    21 TIME STEP    13
   LAY   ROW   COL         APPL.Q          ACT.Q        GW-HEAD       CELL-BOT
     1     3    50  -0.141996E+01  -0.558818E+00   0.479969E-03   0.000000E+00
     1     5    55  -0.141996E+01  -0.470609E+00   0.428040E-03   0.000000E+00
 
 
 SOLVING FOR HEAD 
                                                   Max.-Head-Change                         Max.-Flux-Residual
  Residual-Control   Outer-Iter.   Inner-Iter.     Column Row Layer    Maximum-Head-Change  Column Row Layer    Maximum-Flux-Residual          L2-NORM 
          0                 1           2            71    7     1      -0.1192314144E-01      71    7    1        -0.7258384635E-03      0.1064335814E-01
          0                 2           2            70    7     1       0.1065901839E-02      71    7    1         0.7258222286E-04      0.1109478653E-02
          0                 3           1            70    1     1      -0.9041676140E-04      72    4    1         0.1048922704E-04      0.1115256416E-03
          0                 4           1            70    1     1       0.7029839579E-05      72    4    1        -0.9847922779E-06      0.9430806720E-05
          0                 5           1            69    1     1      -0.4864292271E-06      73    4    1         0.7265071744E-07      0.6762387065E-06

    ------------------------------------------------
       NWT REQUIRED            5 OUTER ITERATIONS 
       AND A TOTAL OF          7 INNER ITERATIONS.
    ------------------------------------------------

 NO OUTPUT CONTROL FOR STRESS PERIOD   21   TIME STEP   14
 
 WELLS WITH REDUCED PUMPING FOR STRESS PERIOD    21 TIME STEP    14
   LAY   ROW   COL         APPL.Q          ACT.Q        GW-HEAD       CELL-BOT
     1     3    50  -0.142003E+01  -0.558558E+00   0.479814E-03   0.000000E+00
     1     5    55  -0.142003E+01  -0.470315E+00   0.427865E-03   0.000000E+00
 
 
 SOLVING FOR HEAD 
                                                   Max.-Head-Change                         Max.-Flux-Residual
  Residual-Control   Outer-Iter.   Inner-Iter.     Column Row Layer    Maximum-Head-Change  Column Row Layer    Maximum-Flux-Residual          L2-NORM 
          0                 1           2            71    7     1      -0.1307382954E-01      71    7    1        -0.7241206031E-03      0.1063518039E-01
          0                 2           2            70    7     1       0.1160391075E-02      71    7    1         0.7241016427E-04      0.1111564820E-02
          0                 3           1            70    1     1      -0.9772646878E-04      72    4    1         0.1074430380E-04      0.1125770783E-03
          0                 4           1            69    1     1       0.7560900643E-05      72    4    1        -0.1024403216E-05      0.9588358881E-05
          0                 5           1            69    1     1      -0.5221776942E-06      72    4    1         0.7623106946E-07      0.6906084720E-06

    ------------------------------------------------
       NWT REQUIRED            5 OUTER ITERATIONS 
       AND A TOTAL OF          7 INNER ITERATIONS.
    ------------------------------------------------

 NO OUTPUT CONTROL FOR STRESS PERIOD   21   TIME STEP   15
 
 WELLS WITH REDUCED PUMPING FOR STRESS PERIOD    21 TIME STEP    15
   LAY   ROW   COL         APPL.Q          ACT.Q        GW-HEAD       CELL-BOT
     1     3    50  -0.142003E+01  -0.558345E+00   0.479700E-03   0.000000E+00
     1     5    55  -0.142003E+01  -0.470057E+00   0.427723E-03   0.000000E+00
 
 
 SOLVING FOR HEAD 
                                                   Max.-Head-Change                         Max.-Flux-Residual
  Residual-Control   Outer-Iter.   Inner-Iter.     Column Row Layer    Maximum-Head-Change  Column Row Layer    Maximum-Flux-Residual          L2-NORM 
          0                 1           2            71    7     1      -0.1433240800E-01      93    4    1        -0.1187998255E-02      0.1176660551E-01
          0                 2           2            70    7     1       0.1262933530E-02     100    4    1         0.8037785648E-04      0.1109301835E-02
          0                 3           1            70    1     1      -0.1055593211E-03      72    4    1         0.1098145179E-04      0.1117838716E-03
          0                 4           1            69    1     1       0.8124682657E-05      72    4    1        -0.1062572373E-05      0.9652722430E-05
          0                 5           1            69    1     1      -0.5594250242E-06      72    4    1         0.7981639349E-07      0.7024058836E-06

    ------------------------------------------------
       NWT REQUIRED            5 OUTER ITERATIONS 
       AND A TOTAL OF          7 INNER ITERATIONS.
    ------------------------------------------------

 NO OUTPUT CONTROL FOR STRESS PERIOD   21   TIME STEP   16
 
 WELLS WITH REDUCED PUMPING FOR STRESS PERIOD    21 TIME STEP    16
   LAY   ROW   COL         APPL.Q          ACT.Q        GW-HEAD       CELL-BOT
     1     3    50  -0.142003E+01  -0.558139E+00   0.479590E-03   0.000000E+00
     1     5    55  -0.142003E+01  -0.469799E+00   0.427581E-03   0.000000E+00
 
 
 SOLVING FOR HEAD 
                                                   Max.-Head-Change                         Max.-Flux-Residual
  Residual-Control   Outer-Iter.   Inner-Iter.     Column Row Layer    Maximum-Head-Change  Column Row Layer    Maximum-Flux-Residual          L2-NORM 
          0                 1           2            89    4     1      -0.2044735080E-01      91    4    1        -0.1598336378E-02      0.1452898378E-01
          0                 2           2            70    7     1       0.1374240149E-02     100    4    1         0.1197541874E-03      0.1181643707E-02
          0                 3           2            70    7     1      -0.1139646974E-03      72    4    1         0.1120066947E-04      0.1156579177E-03
          0                 4           1            69    7     1       0.8726160980E-05      72    4    1        -0.1099091584E-05      0.1019925546E-04
          0                 5           1            69    7     1      -0.5987314574E-06      72    4    1         0.8332692758E-07      0.7563003415E-06

    ------------------------------------------------
       NWT REQUIRED            5 OUTER ITERATIONS 
       AND A TOTAL OF          8 INNER ITERATIONS.
    ------------------------------------------------

 NO OUTPUT CONTROL FOR STRESS PERIOD   21   TIME STEP   17
 
 WELLS WITH REDUCED PUMPING FOR STRESS PERIOD    21 TIME STEP    17
   LAY   ROW   COL         APPL.Q          ACT.Q        GW-HEAD       CELL-BOT
     1     3    50  -0.141998E+01  -0.557922E+00   0.479483E-03   0.000000E+00
     1     5    55  -0.141998E+01  -0.469526E+00   0.427439E-03   0.000000E+00
 
 
 SOLVING FOR HEAD 
                                                   Max.-Head-Change                         Max.-Flux-Residual
  Residual-Control   Outer-Iter.   Inner-Iter.     Column Row Layer    Maximum-Head-Change  Column Row Layer    Maximum-Flux-Residual          L2-NORM 
          0                 1           2            82    4     1      -0.2584752194E-01      82    4    1        -0.1659005891E-02      0.1576959698E-01
          0                 2           2            83    2     1       0.1589760433E-02      87    5    1         0.8062655998E-04      0.1309881708E-02
          0                 3           2            84    7     1      -0.1231922024E-03      72    4    1         0.1147557652E-04      0.1316752091E-03
          0                 4           1            69    7     1       0.9356670805E-05      72    4    1        -0.1138513504E-05      0.1187456026E-04
          0                 5           1            69    7     1      -0.6392271977E-06      86    4    1         0.9006571844E-07      0.8941921883E-06

    ------------------------------------------------
       NWT REQUIRED            5 OUTER ITERATIONS 
       AND A TOTAL OF          8 INNER ITERATIONS.
    ------------------------------------------------

 NO OUTPUT CONTROL FOR STRESS PERIOD   21   TIME STEP   18
 
 WELLS WITH REDUCED PUMPING FOR STRESS PERIOD    21 TIME STEP    18
   LAY   ROW   COL         APPL.Q          ACT.Q        GW-HEAD       CELL-BOT
     1     3    50  -0.141998E+01  -0.557689E+00   0.479359E-03   0.000000E+00
     1     5    55  -0.141998E+01  -0.469230E+00   0.427278E-03   0.000000E+00
 
 
 SOLVING FOR HEAD 
                                                   Max.-Head-Change                         Max.-Flux-Residual
  Residual-Control   Outer-Iter.   Inner-Iter.     Column Row Layer    Maximum-Head-Change  Column Row Layer    Maximum-Flux-Residual          L2-NORM 
          0                 1           2            78    4     1      -0.3060213091E-01      77    4    1        -0.1680174423E-02      0.1706396045E-01
          0                 2           2            82    7     1       0.2048341937E-02      83    5    1         0.9614251243E-04      0.1485887439E-02
          0                 3           2            83    7     1      -0.1610591766E-03      69    4    1         0.1151503785E-04      0.1521168161E-03
          0                 4           1            83    7     1       0.1171289716E-04      83    4    1        -0.1337323464E-05      0.1384390922E-04
          0                 5           1            83    7     1      -0.7710135822E-06      84    4    1         0.1112169716E-06      0.1049536527E-05

    ------------------------------------------------
       NWT REQUIRED            5 OUTER ITERATIONS 
       AND A TOTAL OF          8 INNER ITERATIONS.
    ------------------------------------------------

 NO OUTPUT CONTROL FOR STRESS PERIOD   21   TIME STEP   19
 
 WELLS WITH REDUCED PUMPING FOR STRESS PERIOD    21 TIME STEP    19
   LAY   ROW   COL         APPL.Q          ACT.Q        GW-HEAD       CELL-BOT
     1     3    50  -0.141997E+01  -0.557436E+00   0.479225E-03   0.000000E+00
     1     5    55  -0.141997E+01  -0.468908E+00   0.427102E-03   0.000000E+00
 
 
 SOLVING FOR HEAD 
                                                   Max.-Head-Change                         Max.-Flux-Residual
  Residual-Control   Outer-Iter.   Inner-Iter.     Column Row Layer    Maximum-Head-Change  Column Row Layer    Maximum-Flux-Residual          L2-NORM 
          0                 1           2            74    4     1      -0.3493239650E-01      73    4    1        -0.1676448725E-02      0.1807098094E-01
          0                 2           2            79    7     1       0.2515594752E-02      78    3    1         0.1057978416E-03      0.1672668006E-02
          0                 3           2            79    7     1      -0.1977796661E-03      86    4    1         0.1425494226E-04      0.1732393114E-03
          0                 4           1            79    7     1       0.1434801804E-04      84    4    1        -0.1562926853E-05      0.1577615725E-04
          0                 5           1            79    7     1      -0.9413066282E-06      82    4    1         0.1284540136E-06      0.1197233793E-05

    ------------------------------------------------
       NWT REQUIRED            5 OUTER ITERATIONS 
       AND A TOTAL OF          8 INNER ITERATIONS.
    ------------------------------------------------

 NO OUTPUT CONTROL FOR STRESS PERIOD   21   TIME STEP   20
 
 WELLS WITH REDUCED PUMPING FOR STRESS PERIOD    21 TIME STEP    20
   LAY   ROW   COL         APPL.Q          ACT.Q        GW-HEAD       CELL-BOT
     1     3    50  -0.142002E+01  -0.557121E+00   0.479046E-03   0.000000E+00
     1     5    55  -0.142002E+01  -0.468527E+00   0.426883E-03   0.000000E+00
 
 
 SOLVING FOR HEAD 
                                                   Max.-Head-Change                         Max.-Flux-Residual
  Residual-Control   Outer-Iter.   Inner-Iter.     Column Row Layer    Maximum-Head-Change  Column Row Layer    Maximum-Flux-Residual          L2-NORM 
          0                 1           2            75    4     1      -0.3882445193E-01      70    4    1        -0.1691086315E-02      0.1941360761E-01
          0                 2           2            76    7     1       0.2967542858E-02      78    3    1         0.1120144927E-03      0.1778619428E-02
          0                 3           2            77    7     1      -0.2334812567E-03      80    4    1         0.1625447664E-04      0.1839868201E-03
          0                 4           1            77    7     1       0.1691920625E-04      80    4    1        -0.1779867414E-05      0.1688682533E-04
          0                 5           1            77    7     1      -0.1106702141E-05      80    4    1         0.1456806178E-06      0.1291016441E-05
          0                 6           1            77    7     1       0.6407269291E-07      80    4    1        -0.9516570643E-08      0.8192360605E-07

    ------------------------------------------------
       NWT REQUIRED            6 OUTER ITERATIONS 
       AND A TOTAL OF          9 INNER ITERATIONS.
    ------------------------------------------------

 NO OUTPUT CONTROL FOR STRESS PERIOD   21   TIME STEP   21
 
 WELLS WITH REDUCED PUMPING FOR STRESS PERIOD    21 TIME STEP    21
   LAY   ROW   COL         APPL.Q          ACT.Q        GW-HEAD       CELL-BOT
     1     3    50  -0.142000E+01  -0.556793E+00   0.478873E-03   0.000000E+00
     1     5    55  -0.142000E+01  -0.468110E+00   0.426657E-03   0.000000E+00
 
 
 SOLVING FOR HEAD 
                                                   Max.-Head-Change                         Max.-Flux-Residual
  Residual-Control   Outer-Iter.   Inner-Iter.     Column Row Layer    Maximum-Head-Change  Column Row Layer    Maximum-Flux-Residual          L2-NORM 
          0                 1           2            72    4     1      -0.4359520531E-01      67    4    1        -0.1676601394E-02      0.2039806989E-01
          0                 2           2            75    1     1       0.3401827366E-02      75    3    1         0.1179038301E-03      0.1932818181E-02
          0                 3           2            75    1     1      -0.2680593779E-03      76    4    1         0.1758137220E-04      0.2012779474E-03
          0                 4           1            75    7     1       0.1941259862E-04      76    4    1        -0.1924186950E-05      0.1850114199E-04
          0                 5           1            75    7     1      -0.1267542541E-05      76    4    1         0.1577827913E-06      0.1415886460E-05
          0                 6           1            75    7     1       0.7327317991E-07      76    4    1        -0.1033658492E-07      0.9000770797E-07

    ------------------------------------------------
       NWT REQUIRED            6 OUTER ITERATIONS 
       AND A TOTAL OF          9 INNER ITERATIONS.
    ------------------------------------------------

 NO OUTPUT CONTROL FOR STRESS PERIOD   21   TIME STEP   22
 
 WELLS WITH REDUCED PUMPING FOR STRESS PERIOD    21 TIME STEP    22
   LAY   ROW   COL         APPL.Q          ACT.Q        GW-HEAD       CELL-BOT
     1     3    50  -0.141999E+01  -0.556439E+00   0.478685E-03   0.000000E+00
     1     5    55  -0.141999E+01  -0.467659E+00   0.426410E-03   0.000000E+00
 
 
 SOLVING FOR HEAD 
                                                   Max.-Head-Change                         Max.-Flux-Residual
  Residual-Control   Outer-Iter.   Inner-Iter.     Column Row Layer    Maximum-Head-Change  Column Row Layer    Maximum-Flux-Residual          L2-NORM 
          0                 1           2            69    4     1      -0.4784043448E-01      64    4    1        -0.1618239897E-02      0.2121043650E-01
          0                 2           2            76    7     1       0.3867158015E-02      72    3    1         0.1206658718E-03      0.2044506666E-02
          0                 3           2            75    7     1      -0.3030554800E-03      73    4    1         0.1830109806E-04      0.2135608511E-03
          0                 4           1            74    7     1       0.2180922918E-04      73    4    1        -0.2008717969E-05      0.1967116704E-04
          0                 5           1            73    7     1      -0.1416399076E-05      72    4    1         0.1629437349E-06      0.1507707352E-05
          0                 6           1            72    7     1       0.8169209388E-07      72    4    1        -0.1071491518E-07      0.9605188242E-07

    ------------------------------------------------
       NWT REQUIRED            6 OUTER ITERATIONS 
       AND A TOTAL OF          9 INNER ITERATIONS.
    ------------------------------------------------

 NO OUTPUT CONTROL FOR STRESS PERIOD   21   TIME STEP   23
 
 WELLS WITH REDUCED PUMPING FOR STRESS PERIOD    21 TIME STEP    23
   LAY   ROW   COL         APPL.Q          ACT.Q        GW-HEAD       CELL-BOT
     1     3    50  -0.141998E+01  -0.555914E+00   0.478405E-03   0.000000E+00
     1     5    55  -0.141998E+01  -0.467031E+00   0.426066E-03   0.000000E+00
 
 
 SOLVING FOR HEAD 
                                                   Max.-Head-Change                         Max.-Flux-Residual
  Residual-Control   Outer-Iter.   Inner-Iter.     Column Row Layer    Maximum-Head-Change  Column Row Layer    Maximum-Flux-Residual          L2-NORM 
          0                 1           3            73    4     1      -0.5381034829E-01      62    4    1        -0.1589579135E-02      0.2215363111E-01
          0                 2           2            74    7     1       0.4380416152E-02      77    3    1         0.1218872238E-03      0.2112802443E-02
          0                 3           2            74    7     1      -0.3412731781E-03      70    4    1         0.1853269321E-04      0.2200543359E-03
          0                 4           1            73    7     1       0.2432764858E-04      77    4    1        -0.2055699584E-05      0.2037176619E-04
          0                 5           1            71    7     1      -0.1561487980E-05      78    4    1         0.1710718394E-06      0.1568128267E-05
          0                 6           1            71    7     1       0.8958223257E-07      78    4    1        -0.1141651929E-07      0.1003648253E-06

    ------------------------------------------------
       NWT REQUIRED            6 OUTER ITERATIONS 
       AND A TOTAL OF         10 INNER ITERATIONS.
    ------------------------------------------------

 NO OUTPUT CONTROL FOR STRESS PERIOD   21   TIME STEP   24
 
 WELLS WITH REDUCED PUMPING FOR STRESS PERIOD    21 TIME STEP    24
   LAY   ROW   COL         APPL.Q          ACT.Q        GW-HEAD       CELL-BOT
     1     3    50  -0.141999E+01  -0.555354E+00   0.478101E-03   0.000000E+00
     1     5    55  -0.141999E+01  -0.466359E+00   0.425693E-03   0.000000E+00
 
 
 SOLVING FOR HEAD 
                                                   Max.-Head-Change                         Max.-Flux-Residual
  Residual-Control   Outer-Iter.   Inner-Iter.     Column Row Layer    Maximum-Head-Change  Column Row Layer    Maximum-Flux-Residual          L2-NORM 
          0                 1           3            70    4     1      -0.5960000845E-01      59    4    1        -0.1592367162E-02      0.2290255614E-01
          0                 2           2            72    7     1       0.4883666204E-02      73    3    1         0.1251790490E-03      0.2215300967E-02
          0                 3           2            72    7     1      -0.3797526651E-03      74    4    1         0.1894127918E-04      0.2314031197E-03
          0                 4           1            72    7     1       0.2697542099E-04      74    4    1        -0.2135301948E-05      0.2146801756E-04
          0                 5           1            71    7     1      -0.1719662448E-05      74    4    1         0.1797130036E-06      0.1653512107E-05
          0                 6           1            70    7     1       0.9780462566E-07      74    4    1        -0.1203722277E-07      0.1060296828E-06

    ------------------------------------------------
       NWT REQUIRED            6 OUTER ITERATIONS 
       AND A TOTAL OF         10 INNER ITERATIONS.
    ------------------------------------------------

 NO OUTPUT CONTROL FOR STRESS PERIOD   21   TIME STEP   25
 
 WELLS WITH REDUCED PUMPING FOR STRESS PERIOD    21 TIME STEP    25
   LAY   ROW   COL         APPL.Q          ACT.Q        GW-HEAD       CELL-BOT
     1     3    50  -0.142002E+01  -0.554757E+00   0.477776E-03   0.000000E+00
     1     5    55  -0.142002E+01  -0.465651E+00   0.425300E-03   0.000000E+00
 
 
 SOLVING FOR HEAD 
                                                   Max.-Head-Change                         Max.-Flux-Residual
  Residual-Control   Outer-Iter.   Inner-Iter.     Column Row Layer    Maximum-Head-Change  Column Row Layer    Maximum-Flux-Residual          L2-NORM 
          0                 1           3            78    4     1      -0.6486733006E-01      58    4    1        -0.1686937327E-02      0.2346426652E-01
          0                 2           2            71    7     1       0.5391348578E-02      71    3    1         0.1261962597E-03      0.2299166453E-02
          0                 3           2            71    7     1      -0.4182651947E-03      74    4    1         0.1935923362E-04      0.2407769068E-03
          0                 4           1            71    7     1       0.2960476688E-04      74    4    1        -0.2191585605E-05      0.2237188823E-04
          0                 5           1            70    1     1      -0.1882495951E-05      74    4    1         0.1853897533E-06      0.1722183692E-05
          0                 6           1            70    7     1       0.1069808276E-06      74    4    1        -0.1247340542E-07      0.1105509798E-06

    ------------------------------------------------
       NWT REQUIRED            6 OUTER ITERATIONS 
       AND A TOTAL OF         10 INNER ITERATIONS.
    ------------------------------------------------

 NO OUTPUT CONTROL FOR STRESS PERIOD   21   TIME STEP   26
 
 WELLS WITH REDUCED PUMPING FOR STRESS PERIOD    21 TIME STEP    26
   LAY   ROW   COL         APPL.Q          ACT.Q        GW-HEAD       CELL-BOT
     1     3    50  -0.142001E+01  -0.553734E+00   0.477228E-03   0.000000E+00
     1     5    55  -0.142001E+01  -0.464513E+00   0.424673E-03   0.000000E+00
 
 
 SOLVING FOR HEAD 
                                                   Max.-Head-Change                         Max.-Flux-Residual
  Residual-Control   Outer-Iter.   Inner-Iter.     Column Row Layer    Maximum-Head-Change  Column Row Layer    Maximum-Flux-Residual          L2-NORM 
          0                 1           3            74    4     1      -0.7334819168E-01      56    4    1        -0.1453925319E-02      0.2394402932E-01
          0                 2           2            74    7     1       0.6045931781E-02      78    5    1         0.1252790508E-03      0.2354464754E-02
          0                 3           2            74    7     1      -0.4646933811E-03      71    4    1         0.1965117348E-04      0.2468721926E-03
          0                 4           1            73    7     1       0.3240059166E-04      71    4    1        -0.2228941666E-05      0.2298486315E-04
          0                 5           1            68    1     1      -0.2041358116E-05      70    4    1         0.1863528212E-06      0.1768177619E-05
          0                 6           1            67    1     1       0.1162981996E-06      78    4    1        -0.1269062011E-07      0.1136502581E-06

    ------------------------------------------------
       NWT REQUIRED            6 OUTER ITERATIONS 
       AND A TOTAL OF         10 INNER ITERATIONS.
    ------------------------------------------------

 NO OUTPUT CONTROL FOR STRESS PERIOD   21   TIME STEP   27
 
 WELLS WITH REDUCED PUMPING FOR STRESS PERIOD    21 TIME STEP    27
   LAY   ROW   COL         APPL.Q          ACT.Q        GW-HEAD       CELL-BOT
     1     3    50  -0.142000E+01  -0.551754E+00   0.476164E-03   0.000000E+00
     1     5    55  -0.142000E+01  -0.462465E+00   0.423544E-03   0.000000E+00
 
 
 SOLVING FOR HEAD 
                                                   Max.-Head-Change                         Max.-Flux-Residual
  Residual-Control   Outer-Iter.   Inner-Iter.     Column Row Layer    Maximum-Head-Change  Column Row Layer    Maximum-Flux-Residual          L2-NORM 
          0                 1           3            71    4     1      -0.8147129536E-01      55    4    1        -0.1379872446E-02      0.2426033730E-01
          0                 2           2            72    7     1       0.6727221525E-02      74    5    1         0.1290929607E-03      0.2387372518E-02
          0                 3           2            72    7     1      -0.5155702623E-03      68    4    1         0.1949713167E-04      0.2498451483E-03
          0                 4           1            72    7     1       0.3579250819E-04      75    4    1        -0.2243578317E-05      0.2330552445E-04
          0                 5           1            71    7     1      -0.2214645459E-05      74    4    1         0.1932850484E-06      0.1790559560E-05
          0                 6           1            65    1     1       0.1256908089E-06      74    4    1        -0.1324452725E-07      0.1152972642E-06

    ------------------------------------------------
       NWT REQUIRED            6 OUTER ITERATIONS 
       AND A TOTAL OF         10 INNER ITERATIONS.
    ------------------------------------------------

 NO OUTPUT CONTROL FOR STRESS PERIOD   21   TIME STEP   28
 
 WELLS WITH REDUCED PUMPING FOR STRESS PERIOD    21 TIME STEP    28
   LAY   ROW   COL         APPL.Q          ACT.Q        GW-HEAD       CELL-BOT
     1     3    50  -0.142000E+01  -0.549235E+00   0.474809E-03   0.000000E+00
     1     5    55  -0.142000E+01  -0.459880E+00   0.422116E-03   0.000000E+00
 
 
 SOLVING FOR HEAD 
                                                   Max.-Head-Change                         Max.-Flux-Residual
  Residual-Control   Outer-Iter.   Inner-Iter.     Column Row Layer    Maximum-Head-Change  Column Row Layer    Maximum-Flux-Residual          L2-NORM 
          0                 1           3            69    4     1      -0.8880606195E-01      72    3    1        -0.1304439717E-02      0.2461260451E-01
          0                 2           2            71    7     1       0.7406787031E-02      72    3    1         0.1303914719E-03      0.2406796430E-02
          0                 3           2            71    7     1      -0.5663283376E-03      72    4    1         0.1960125941E-04      0.2507766001E-03
          0                 4           1            71    7     1       0.3917506568E-04      72    4    1        -0.2283157489E-05      0.2346018688E-04
          0                 5           1            69    7     1      -0.2415675118E-05      72    4    1         0.1977153357E-06      0.1798509415E-05
          0                 6           1            64    7     1       0.1354789095E-06      72    4    1        -0.1358425195E-07      0.1160374701E-06

    ------------------------------------------------
       NWT REQUIRED            6 OUTER ITERATIONS 
       AND A TOTAL OF         10 INNER ITERATIONS.
    ------------------------------------------------

 NO OUTPUT CONTROL FOR STRESS PERIOD   21   TIME STEP   29
 
 WELLS WITH REDUCED PUMPING FOR STRESS PERIOD    21 TIME STEP    29
   LAY   ROW   COL         APPL.Q          ACT.Q        GW-HEAD       CELL-BOT
     1     3    50  -0.141999E+01  -0.546723E+00   0.473458E-03   0.000000E+00
     1     5    55  -0.141999E+01  -0.457286E+00   0.420683E-03   0.000000E+00
 
 
 SOLVING FOR HEAD 
                                                   Max.-Head-Change                         Max.-Flux-Residual
  Residual-Control   Outer-Iter.   Inner-Iter.     Column Row Layer    Maximum-Head-Change  Column Row Layer    Maximum-Flux-Residual          L2-NORM 
          0                 1           3            71    1     1      -0.9667110664E-01      70    3    1        -0.1297288998E-02      0.2487796010E-01
          0                 2           2            70    7     1       0.8099309243E-02      70    3    1         0.1296717880E-03      0.2457112317E-02
          0                 3           2            70    7     1      -0.6173071648E-03      72    4    1         0.1970037379E-04      0.2561847950E-03
          0                 4           1            69    1     1       0.4253488494E-04      72    4    1        -0.2302355835E-05      0.2399337272E-04
          0                 5           1            67    7     1      -0.2620556737E-05      72    4    1         0.2001701311E-06      0.1830073933E-05
          0                 6           1            66    7     1       0.1480282942E-06      72    4    1        -0.1379730286E-07      0.1180347381E-06

    ------------------------------------------------
       NWT REQUIRED            6 OUTER ITERATIONS 
       AND A TOTAL OF         10 INNER ITERATIONS.
    ------------------------------------------------

 NO OUTPUT CONTROL FOR STRESS PERIOD   21   TIME STEP   30
 
 WELLS WITH REDUCED PUMPING FOR STRESS PERIOD    21 TIME STEP    30
   LAY   ROW   COL         APPL.Q          ACT.Q        GW-HEAD       CELL-BOT
     1     3    50  -0.141999E+01  -0.544076E+00   0.472031E-03   0.000000E+00
     1     5    55  -0.141999E+01  -0.454571E+00   0.419179E-03   0.000000E+00
 



 STREAM LISTING     PERIOD     21   STEP       30

 LAYER ROW COL. STREAM  RCH.   FLOW INTO    STREAM     FLOW OUT OF   OVRLND.    DIRECT     STREAM      STREAM      STREAM     STREAM  STREAMBED   FLOW TO   CHNG. UNSAT. 
                SEG.NO.  NO.   STRM. RCH.    LOSS       STRM. RCH.   RUNOFF     PRECIP       ET         HEAD        DEPTH      WIDTH  CONDCTNC.   WAT. TAB.

   1    4    1     1     1    1.2630E+01  3.5811E-03   1.2626E+01  0.000E+00  0.000E+00  0.000E+00  1.42557E+02  2.706E+00  5.051E+00  1.117E-03  4.138E-03 -5.564E-04
   1    4    2     1     2    1.2626E+01  3.5803E-03   1.2623E+01  0.000E+00  0.000E+00  0.000E+00  1.42256E+02  2.706E+00  5.050E+00  1.117E-03  4.130E-03 -5.498E-04
   1    4    3     1     3    1.2623E+01  3.5795E-03   1.2619E+01  0.000E+00  0.000E+00  0.000E+00  1.41956E+02  2.706E+00  5.050E+00  1.117E-03  4.124E-03 -5.442E-04
   1    4    4     1     4    1.2619E+01  3.5786E-03   1.2616E+01  0.000E+00  0.000E+00  0.000E+00  1.41655E+02  2.705E+00  5.049E+00  1.116E-03  4.118E-03 -5.396E-04
   1    4    5     1     5    1.2616E+01  3.5778E-03   1.2612E+01  0.000E+00  0.000E+00  0.000E+00  1.41355E+02  2.705E+00  5.049E+00  1.116E-03  4.114E-03 -5.362E-04
   1    4    6     1     6    1.2612E+01  3.5770E-03   1.2609E+01  0.000E+00  0.000E+00  0.000E+00  1.41055E+02  2.705E+00  5.048E+00  1.116E-03  4.111E-03 -5.340E-04
   1    4    7     1     7    1.2609E+01  3.5762E-03   1.2605E+01  0.000E+00  0.000E+00  0.000E+00  1.40754E+02  2.704E+00  5.048E+00  1.116E-03  4.109E-03 -5.329E-04
   1    4    8     1     8    1.2605E+01  3.5753E-03   1.2601E+01  0.000E+00  0.000E+00  0.000E+00  1.40454E+02  2.704E+00  5.047E+00  1.116E-03  4.108E-03 -5.329E-04
   1    4    9     1     9    1.2601E+01  3.5745E-03   1.2598E+01  0.000E+00  0.000E+00  0.000E+00  1.40153E+02  2.703E+00  5.047E+00  1.116E-03  4.109E-03 -5.342E-04
   1    4   10     1    10    1.2598E+01  3.5737E-03   1.2594E+01  0.000E+00  0.000E+00  0.000E+00  1.39853E+02  2.703E+00  5.046E+00  1.116E-03  4.110E-03 -5.366E-04
   1    4   11     1    11    1.2594E+01  3.5728E-03   1.2591E+01  0.000E+00  0.000E+00  0.000E+00  1.39553E+02  2.703E+00  5.046E+00  1.116E-03  4.113E-03 -5.403E-04
   1    4   12     1    12    1.2591E+01  3.5720E-03   1.2587E+01  0.000E+00  0.000E+00  0.000E+00  1.39252E+02  2.702E+00  5.046E+00  1.115E-03  4.117E-03 -5.452E-04
   1    4   13     1    13    1.2587E+01  3.5712E-03   1.2584E+01  0.000E+00  0.000E+00  0.000E+00  1.38952E+02  2.702E+00  5.045E+00  1.115E-03  4.122E-03 -5.513E-04
   1    4   14     1    14    1.2584E+01  3.5704E-03   1.2580E+01  0.000E+00  0.000E+00  0.000E+00  1.38652E+02  2.702E+00  5.045E+00  1.115E-03  4.127E-03 -5.570E-04
   1    4   15     1    15    1.2580E+01  3.5695E-03   1.2576E+01  0.000E+00  0.000E+00  0.000E+00  1.38351E+02  2.701E+00  5.044E+00  1.115E-03  4.125E-03 -5.550E-04
   1    4   16     1    16    1.2576E+01  3.5687E-03   1.2573E+01  0.000E+00  0.000E+00  0.000E+00  1.38051E+02  2.701E+00  5.044E+00  1.115E-03  4.122E-03 -5.529E-04
   1    4   17     1    17    1.2573E+01  3.5679E-03   1.2569E+01  0.000E+00  0.000E+00  0.000E+00  1.37750E+02  2.700E+00  5.043E+00  1.115E-03  4.119E-03 -5.508E-04
   1    4   18     1    18    1.2569E+01  3.5670E-03   1.2566E+01  0.000E+00  0.000E+00  0.000E+00  1.37450E+02  2.700E+00  5.043E+00  1.115E-03  4.116E-03 -5.487E-04
   1    4   19     1    19    1.2566E+01  3.5662E-03   1.2562E+01  0.000E+00  0.000E+00  0.000E+00  1.37150E+02  2.700E+00  5.042E+00  1.115E-03  4.113E-03 -5.466E-04
   1    4   20     1    20    1.2562E+01  3.5654E-03   1.2559E+01  0.000E+00  0.000E+00  0.000E+00  1.36849E+02  2.699E+00  5.042E+00  1.114E-03  4.110E-03 -5.445E-04
   1    4   21     1    21    1.2559E+01  3.5646E-03   1.2555E+01  0.000E+00  0.000E+00  0.000E+00  1.36549E+02  2.699E+00  5.041E+00  1.114E-03  4.122E-03 -5.570E-04
   1    4   22     1    22    1.2555E+01  3.5637E-03   1.2551E+01  0.000E+00  0.000E+00  0.000E+00  1.36248E+02  2.698E+00  5.041E+00  1.114E-03  4.157E-03 -5.936E-04
   1    4   23     1    23    1.2551E+01  3.5629E-03   1.2548E+01  0.000E+00  0.000E+00  0.000E+00  1.35948E+02  2.698E+00  5.041E+00  1.114E-03  4.230E-03 -6.666E-04
   1    4   24     1    24    1.2548E+01  3.5621E-03   1.2544E+01  0.000E+00  0.000E+00  0.000E+00  1.35648E+02  2.698E+00  5.040E+00  1.114E-03  4.308E-03 -7.459E-04
   1    4   25     1    25    1.2544E+01  3.5613E-03   1.2541E+01  0.000E+00  0.000E+00  0.000E+00  1.35347E+02  2.697E+00  5.040E+00  1.114E-03  4.393E-03 -8.316E-04
   1    4   26     1    26    1.2541E+01  3.5604E-03   1.2537E+01  0.000E+00  0.000E+00  0.000E+00  1.35047E+02  2.697E+00  5.039E+00  1.114E-03  4.465E-03 -9.044E-04
   1    4   27     1    27    1.2537E+01  3.5596E-03   1.2534E+01  0.000E+00  0.000E+00  0.000E+00  1.34747E+02  2.697E+00  5.039E+00  1.114E-03  4.526E-03 -9.669E-04
   1    4   28     1    28    1.2534E+01  3.5588E-03   1.2530E+01  0.000E+00  0.000E+00  0.000E+00  1.34446E+02  2.696E+00  5.038E+00  1.113E-03  4.541E-03 -9.820E-04
   1    4   29     1    29    1.2530E+01  3.5580E-03   1.2526E+01  0.000E+00  0.000E+00  0.000E+00  1.34146E+02  2.696E+00  5.038E+00  1.113E-03  4.556E-03 -9.977E-04
   1    4   30     1    30    1.2526E+01  3.5571E-03   1.2523E+01  0.000E+00  0.000E+00  0.000E+00  1.33845E+02  2.695E+00  5.037E+00  1.113E-03  4.571E-03 -1.012E-03
   1    4   31     1    31    1.2523E+01  3.5563E-03   1.2519E+01  0.000E+00  0.000E+00  0.000E+00  1.33545E+02  2.695E+00  5.037E+00  1.113E-03  4.568E-03 -1.010E-03
   1    4   32     1    32    1.2519E+01  3.5555E-03   1.2516E+01  0.000E+00  0.000E+00  0.000E+00  1.33245E+02  2.695E+00  5.036E+00  1.113E-03  4.566E-03 -1.008E-03
   1    4   33     1    33    1.2516E+01  3.5547E-03   1.2512E+01  0.000E+00  0.000E+00  0.000E+00  1.32944E+02  2.694E+00  5.036E+00  1.113E-03  4.564E-03 -1.007E-03
   1    4   34     1    34    1.2512E+01  3.5538E-03   1.2509E+01  0.000E+00  0.000E+00  0.000E+00  1.32644E+02  2.694E+00  5.035E+00  1.113E-03  4.561E-03 -1.006E-03
   1    4   35     1    35    1.2509E+01  3.5530E-03   1.2505E+01  0.000E+00  0.000E+00  0.000E+00  1.32343E+02  2.693E+00  5.035E+00  1.113E-03  4.559E-03 -1.004E-03
   1    4   36     1    36    1.2505E+01  3.5522E-03   1.2502E+01  0.000E+00  0.000E+00  0.000E+00  1.32043E+02  2.693E+00  5.035E+00  1.112E-03  4.557E-03 -1.003E-03
   1    4   37     1    37    1.2502E+01  3.5514E-03   1.2498E+01  0.000E+00  0.000E+00  0.000E+00  1.31743E+02  2.693E+00  5.034E+00  1.112E-03  4.555E-03 -1.001E-03
   1    4   38     1    38    1.2498E+01  3.5505E-03   1.2494E+01  0.000E+00  0.000E+00  0.000E+00  1.31442E+02  2.692E+00  5.034E+00  1.112E-03  4.552E-03 -9.995E-04
   1    4   39     1    39    1.2494E+01  3.5497E-03   1.2491E+01  0.000E+00  0.000E+00  0.000E+00  1.31142E+02  2.692E+00  5.033E+00  1.112E-03  4.550E-03 -9.979E-04
   1    4   40     1    40    1.2491E+01  3.5489E-03   1.2487E+01  0.000E+00  0.000E+00  0.000E+00  1.30842E+02  2.692E+00  5.033E+00  1.112E-03  4.639E-03 -1.088E-03
   1    4   41     1    41    1.2487E+01  3.5481E-03   1.2484E+01  0.000E+00  0.000E+00  0.000E+00  1.30541E+02  2.691E+00  5.032E+00  1.112E-03  4.813E-03 -1.263E-03
   1    4   42     1    42    1.2484E+01  3.5472E-03   1.2480E+01  0.000E+00  0.000E+00  0.000E+00  1.30241E+02  2.691E+00  5.032E+00  1.112E-03  5.003E-03 -1.453E-03
   1    4   43     1    43    1.2480E+01  3.5464E-03   1.2477E+01  0.000E+00  0.000E+00  0.000E+00  1.29940E+02  2.690E+00  5.031E+00  1.112E-03  5.006E-03 -1.458E-03
   1    4   44     1    44    1.2477E+01  3.5456E-03   1.2473E+01  0.000E+00  0.000E+00  0.000E+00  1.29640E+02  2.690E+00  5.031E+00  1.111E-03  5.006E-03 -1.459E-03
   1    4   45     1    45    1.2473E+01  3.5448E-03   1.2470E+01  0.000E+00  0.000E+00  0.000E+00  1.29340E+02  2.690E+00  5.030E+00  1.111E-03  5.006E-03 -1.460E-03
   1    4   46     1    46    1.2470E+01  3.5439E-03   1.2466E+01  0.000E+00  0.000E+00  0.000E+00  1.29039E+02  2.689E+00  5.030E+00  1.111E-03  5.005E-03 -1.459E-03
   1    4   47     1    47    1.2466E+01  3.5431E-03   1.2463E+01  0.000E+00  0.000E+00  0.000E+00  1.28739E+02  2.689E+00  5.030E+00  1.111E-03  5.005E-03 -1.459E-03
   1    4   48     1    48    1.2463E+01  3.5423E-03   1.2459E+01  0.000E+00  0.000E+00  0.000E+00  1.28438E+02  2.688E+00  5.029E+00  1.111E-03  5.305E-03 -1.761E-03
   1    4   49     1    49    1.2459E+01  3.5415E-03   1.2455E+01  0.000E+00  0.000E+00  0.000E+00  1.28138E+02  2.688E+00  5.029E+00  1.111E-03  5.565E-03 -2.022E-03
   1    4   50     1    50    1.2455E+01  3.5406E-03   1.2452E+01  0.000E+00  0.000E+00  0.000E+00  1.27838E+02  2.688E+00  5.028E+00  1.111E-03  5.840E-03 -2.298E-03
   1    4   51     1    51    1.2452E+01  3.5398E-03   1.2448E+01  0.000E+00  0.000E+00  0.000E+00  1.27537E+02  2.687E+00  5.028E+00  1.111E-03  5.665E-03 -2.123E-03
   1    4   52     1    52    1.2448E+01  3.5390E-03   1.2445E+01  0.000E+00  0.000E+00  0.000E+00  1.27237E+02  2.687E+00  5.027E+00  1.110E-03  5.607E-03 -2.066E-03
   1    4   53     1    53    1.2445E+01  3.5382E-03   1.2441E+01  0.000E+00  0.000E+00  0.000E+00  1.26937E+02  2.687E+00  5.027E+00  1.110E-03  5.607E-03 -2.067E-03
   1    4   54     1    54    1.2441E+01  3.5374E-03   1.2438E+01  0.000E+00  0.000E+00  0.000E+00  1.26636E+02  2.686E+00  5.026E+00  1.110E-03  5.665E-03 -2.125E-03
   1    4   55     1    55    1.2438E+01  3.5365E-03   1.2434E+01  0.000E+00  0.000E+00  0.000E+00  1.26336E+02  2.686E+00  5.026E+00  1.110E-03  5.836E-03 -2.297E-03
   1    4   56     1    56    1.2434E+01  3.5357E-03   1.2431E+01  0.000E+00  0.000E+00  0.000E+00  1.26035E+02  2.685E+00  5.025E+00  1.110E-03  5.537E-03 -1.999E-03
   1    4   57     1    57    1.2431E+01  3.5349E-03   1.2427E+01  0.000E+00  0.000E+00  0.000E+00  1.25735E+02  2.685E+00  5.025E+00  1.110E-03  5.283E-03 -1.746E-03
   1    4   58     1    58    1.2427E+01  3.5341E-03   1.2424E+01  0.000E+00  0.000E+00  0.000E+00  1.25435E+02  2.685E+00  5.025E+00  1.110E-03  4.960E-03 -1.424E-03
   1    4   59     1    59    1.2424E+01  3.5333E-03   1.2420E+01  0.000E+00  0.000E+00  0.000E+00  1.25134E+02  2.684E+00  5.024E+00  1.110E-03  4.953E-03 -1.418E-03
   1    4   60     1    60    1.2420E+01  3.5324E-03   1.2417E+01  0.000E+00  0.000E+00  0.000E+00  1.24834E+02  2.684E+00  5.024E+00  1.109E-03  4.949E-03 -1.414E-03
   1    4   61     1    61    1.2417E+01  3.5316E-03   1.2413E+01  0.000E+00  0.000E+00  0.000E+00  1.24534E+02  2.684E+00  5.023E+00  1.109E-03  4.942E-03 -1.409E-03
   1    4   62     1    62    1.2413E+01  3.5308E-03   1.2410E+01  0.000E+00  0.000E+00  0.000E+00  1.24233E+02  2.683E+00  5.023E+00  1.109E-03  4.936E-03 -1.403E-03
   1    4   63     1    63    1.2410E+01  3.5300E-03   1.2406E+01  0.000E+00  0.000E+00  0.000E+00  1.23933E+02  2.683E+00  5.022E+00  1.109E-03  4.930E-03 -1.398E-03
   1    4   64     1    64    1.2406E+01  3.5291E-03   1.2402E+01  0.000E+00  0.000E+00  0.000E+00  1.23632E+02  2.682E+00  5.022E+00  1.109E-03  4.736E-03 -1.205E-03
   1    4   65     1    65    1.2402E+01  3.5283E-03   1.2399E+01  0.000E+00  0.000E+00  0.000E+00  1.23332E+02  2.682E+00  5.021E+00  1.109E-03  4.549E-03 -1.019E-03
   1    4   66     1    66    1.2399E+01  3.5275E-03   1.2395E+01  0.000E+00  0.000E+00  0.000E+00  1.23032E+02  2.682E+00  5.021E+00  1.109E-03  4.459E-03 -9.296E-04
   1    4   67     1    67    1.2395E+01  3.5267E-03   1.2392E+01  0.000E+00  0.000E+00  0.000E+00  1.22731E+02  2.681E+00  5.020E+00  1.109E-03  4.457E-03 -9.281E-04
   1    4   68     1    68    1.2392E+01  3.5259E-03   1.2388E+01  0.000E+00  0.000E+00  0.000E+00  1.22431E+02  2.681E+00  5.020E+00  1.108E-03  4.455E-03 -9.272E-04
   1    4   69     1    69    1.2388E+01  3.5250E-03   1.2385E+01  0.000E+00  0.000E+00  0.000E+00  1.22130E+02  2.680E+00  5.019E+00  1.108E-03  4.453E-03 -9.256E-04
   1    4   70     1    70    1.2385E+01  3.5242E-03   1.2381E+01  0.000E+00  0.000E+00  0.000E+00  1.21830E+02  2.680E+00  5.019E+00  1.108E-03  4.450E-03 -9.241E-04
   1    4   71     1    71    1.2381E+01  3.5234E-03   1.2378E+01  0.000E+00  0.000E+00  0.000E+00  1.21530E+02  2.680E+00  5.019E+00  1.108E-03  4.448E-03 -9.229E-04
   1    4   72     1    72    1.2378E+01  3.5226E-03   1.2374E+01  0.000E+00  0.000E+00  0.000E+00  1.21229E+02  2.679E+00  5.018E+00  1.108E-03  4.446E-03 -9.218E-04
   1    4   73     1    73    1.2374E+01  3.5218E-03   1.2371E+01  0.000E+00  0.000E+00  0.000E+00  1.20929E+02  2.679E+00  5.018E+00  1.108E-03  4.445E-03 -9.210E-04
   1    4   74     1    74    1.2371E+01  3.5210E-03   1.2367E+01  0.000E+00  0.000E+00  0.000E+00  1.20629E+02  2.679E+00  5.017E+00  1.108E-03  4.443E-03 -9.203E-04
   1    4   75     1    75    1.2367E+01  3.5201E-03   1.2364E+01  0.000E+00  0.000E+00  0.000E+00  1.20328E+02  2.678E+00  5.017E+00  1.108E-03  4.442E-03 -9.199E-04
   1    4   76     1    76    1.2364E+01  3.5193E-03   1.2360E+01  0.000E+00  0.000E+00  0.000E+00  1.20028E+02  2.678E+00  5.016E+00  1.107E-03  4.441E-03 -9.197E-04
   1    4   77     1    77    1.2360E+01  3.5185E-03   1.2357E+01  0.000E+00  0.000E+00  0.000E+00  1.19727E+02  2.677E+00  5.016E+00  1.107E-03  4.439E-03 -9.197E-04
   1    4   78     1    78    1.2357E+01  3.5177E-03   1.2353E+01  0.000E+00  0.000E+00  0.000E+00  1.19427E+02  2.677E+00  5.015E+00  1.107E-03  4.348E-03 -8.294E-04
   1    4   79     1    79    1.2353E+01  3.5169E-03   1.2350E+01  0.000E+00  0.000E+00  0.000E+00  1.19127E+02  2.677E+00  5.015E+00  1.107E-03  4.251E-03 -7.336E-04
   1    4   80     1    80    1.2350E+01  3.5160E-03   1.2346E+01  0.000E+00  0.000E+00  0.000E+00  1.18826E+02  2.676E+00  5.014E+00  1.107E-03  4.161E-03 -6.448E-04
   1    4   81     1    81    1.2346E+01  3.5152E-03   1.2343E+01  0.000E+00  0.000E+00  0.000E+00  1.18526E+02  2.676E+00  5.014E+00  1.107E-03  4.078E-03 -5.629E-04
   1    4   82     1    82    1.2343E+01  3.5144E-03   1.2339E+01  0.000E+00  0.000E+00  0.000E+00  1.18226E+02  2.675E+00  5.014E+00  1.107E-03  4.052E-03 -5.374E-04
   1    4   83     1    83    1.2339E+01  3.5136E-03   1.2336E+01  0.000E+00  0.000E+00  0.000E+00  1.17925E+02  2.675E+00  5.013E+00  1.107E-03  4.052E-03 -5.386E-04
   1    4   84     1    84    1.2336E+01  3.5128E-03   1.2332E+01  0.000E+00  0.000E+00  0.000E+00  1.17625E+02  2.675E+00  5.013E+00  1.106E-03  4.042E-03 -5.292E-04
   1    4   85     1    85    1.2332E+01  3.5120E-03   1.2329E+01  0.000E+00  0.000E+00  0.000E+00  1.17324E+02  2.674E+00  5.012E+00  1.106E-03  4.031E-03 -5.192E-04
   1    4   86     1    86    1.2329E+01  3.5111E-03   1.2325E+01  0.000E+00  0.000E+00  0.000E+00  1.17024E+02  2.674E+00  5.012E+00  1.106E-03  4.022E-03 -5.108E-04
   1    4   87     1    87    1.2325E+01  3.5103E-03   1.2322E+01  0.000E+00  0.000E+00  0.000E+00  1.16724E+02  2.674E+00  5.011E+00  1.106E-03  4.014E-03 -5.040E-04
   1    4   88     1    88    1.2322E+01  3.5095E-03   1.2318E+01  0.000E+00  0.000E+00  0.000E+00  1.16423E+02  2.673E+00  5.011E+00  1.106E-03  4.008E-03 -4.985E-04
   1    4   89     1    89    1.2318E+01  3.5087E-03   1.2315E+01  0.000E+00  0.000E+00  0.000E+00  1.16123E+02  2.673E+00  5.010E+00  1.106E-03  4.004E-03 -4.948E-04
   1    4   90     1    90    1.2315E+01  3.5079E-03   1.2311E+01  0.000E+00  0.000E+00  0.000E+00  1.15822E+02  2.672E+00  5.010E+00  1.106E-03  4.001E-03 -4.930E-04
   1    4   91     1    91    1.2311E+01  3.5071E-03   1.2307E+01  0.000E+00  0.000E+00  0.000E+00  1.15522E+02  2.672E+00  5.009E+00  1.106E-03  4.000E-03 -4.931E-04
   1    4   92     1    92    1.2307E+01  3.5062E-03   1.2304E+01  0.000E+00  0.000E+00  0.000E+00  1.15222E+02  2.672E+00  5.009E+00  1.105E-03  4.002E-03 -4.953E-04
   1    4   93     1    93    1.2304E+01  3.5054E-03   1.2300E+01  0.000E+00  0.000E+00  0.000E+00  1.14921E+02  2.671E+00  5.009E+00  1.105E-03  4.005E-03 -4.998E-04
   1    4   94     1    94    1.2300E+01  3.5046E-03   1.2297E+01  0.000E+00  0.000E+00  0.000E+00  1.14621E+02  2.671E+00  5.008E+00  1.105E-03  4.011E-03 -5.067E-04
   1    4   95     1    95    1.2297E+01  3.5038E-03   1.2293E+01  0.000E+00  0.000E+00  0.000E+00  1.14321E+02  2.671E+00  5.008E+00  1.105E-03  4.020E-03 -5.162E-04
   1    4   96     1    96    1.2293E+01  3.5030E-03   1.2290E+01  0.000E+00  0.000E+00  0.000E+00  1.14020E+02  2.670E+00  5.007E+00  1.105E-03  4.031E-03 -5.283E-04
   1    4   97     1    97    1.2290E+01  3.5022E-03   1.2286E+01  0.000E+00  0.000E+00  0.000E+00  1.13720E+02  2.670E+00  5.007E+00  1.105E-03  4.045E-03 -5.432E-04
   1    4   98     1    98    1.2286E+01  3.5013E-03   1.2283E+01  0.000E+00  0.000E+00  0.000E+00  1.13419E+02  2.669E+00  5.006E+00  1.105E-03  4.062E-03 -5.606E-04
   1    4   99     1    99    1.2283E+01  3.5005E-03   1.2279E+01  0.000E+00  0.000E+00  0.000E+00  1.13119E+02  2.669E+00  5.006E+00  1.105E-03  4.081E-03 -5.805E-04
   1    4  100     1   100    1.2279E+01  3.4997E-03   1.2276E+01  0.000E+00  0.000E+00  0.000E+00  1.12819E+02  2.669E+00  5.005E+00  1.104E-03  4.103E-03 -6.030E-04



1
  VOLUMETRIC BUDGET FOR UNSATURATED ZONE BENEATH STREAMS AT END OF TIME STEP    30 STRESS PERIOD  21
  ------------------------------------------------------------------------------------------------

    CUMULATIVE VOLUMES             L**3    RATES FOR THIS TIME STEP         L**3/T
    ------------------                     ------------------------


          STREAM LOSS =     26169852.0000            STREAM LOSS =            0.3540
    CHANGE IN STORAGE =      2041078.8750      CHANGE IN STORAGE =       -9.4280E-02
       RECHARGE TO GW =     24135088.0000         RECHARGE TO GW =            0.4484

             TOTAL IN =     26169852.0000               TOTAL IN =            0.4483

            TOTAL OUT =     26176166.0000              TOTAL OUT =            0.4484

             IN - OUT =        -6314.0000               IN - OUT =       -9.6202E-05

  PERCENT DISCREPANCY =           -0.01      PERCENT DISCREPANCY =            -0.01



1
  VOLUMETRIC BUDGET FOR ENTIRE MODEL AT END OF TIME STEP   30, STRESS PERIOD  21
  ------------------------------------------------------------------------------

     CUMULATIVE VOLUMES      L**3       RATES FOR THIS TIME STEP      L**3/T
     ------------------                 ------------------------

           IN:                                      IN:
           ---                                      ---
             STORAGE     =    83658624.0000               STORAGE     =           0.6362
       CONSTANT HEAD     =           0.0000         CONSTANT HEAD     =           0.0000
               WELLS     =           0.0000                 WELLS     =           0.0000
     HEAD DEP BOUNDS     =           0.0000       HEAD DEP BOUNDS     =           0.0000
      STREAM LEAKAGE     =    24134930.0000        STREAM LEAKAGE     =           0.4484

                TOTAL IN =   107793552.0000                  TOTAL IN =           1.0846

          OUT:                                     OUT:
          ----                                     ----
             STORAGE     =     3026918.0000               STORAGE     =           0.0000
       CONSTANT HEAD     =           0.0000         CONSTANT HEAD     =           0.0000
               WELLS     =    88855008.0000                 WELLS     =           0.9986
     HEAD DEP BOUNDS     =    15911666.0000       HEAD DEP BOUNDS     =       8.5932E-02
      STREAM LEAKAGE     =           0.0000        STREAM LEAKAGE     =           0.0000

               TOTAL OUT =   107793592.0000                 TOTAL OUT =           1.0846

                IN - OUT =         -40.0000                  IN - OUT =      -1.1921E-07

     PERCENT DISCREPANCY =          -0.00         PERCENT DISCREPANCY =          -0.00






         TIME SUMMARY AT END OF TIME STEP   30 IN STRESS PERIOD   21
                    SECONDS     MINUTES      HOURS       DAYS        YEARS
                    -----------------------------------------------------------
   TIME STEP LENGTH 2.49961E+05  4166.0      69.434      2.8931     7.92080E-03
 STRESS PERIOD TIME 2.59200E+06  43200.      720.00      30.000     8.21355E-02
         TOTAL TIME 5.44320E+07 9.07199E+05  15120.      630.00      1.7248    
1
1
                            STRESS PERIOD NO.   22, LENGTH =   2592000.    
                            -----------------------------------------------

                              NUMBER OF TIME STEPS =    30

                               MULTIPLIER FOR DELT =     1.100

                            INITIAL TIME STEP SIZE =   15757.40    

 REUSING NON-PARAMETER WELLS FROM LAST STRESS PERIOD

      1 WELL 

 REUSING NON-PARAMETER GHB CELLS FROM LAST STRESS PERIOD

      7 GHB CELLS



 CLASSIFICATION & COUNT OF STREAM SEGMENTS BASED ON SOURCE OF INFLOW:

                HEADWATER     DIVERSION     RECEIVES TRIBUTARY FLOW
                ---------     ---------     -----------------------
                     1              0               0



                    INPUT DATA FOR EACH STREAM SEGMENT
 ---------------------------------------------------------------------------------------------

 SEGMENT    SEG.     INFLOW   OVERLAND   STREAM    STREAM   ICALC  OUTFLOW  DIVERSION PRIORITY
    NO.    LENGTH     RATE     RUNOFF      ET       PPT.    METH.  TO SEG.  FROM SEG.    NO.

      1  2.000E+04 5.816E+00 0.000E+00 0.000E+00 0.000E+00    2        0        0        0


         STREAMBED PROPERTIES AND STREAM DIMENSIONS

 SEGMENT     BED HYD. COND.      BED THICKNESS     ELEV.-TOP OF BED     WIDTH OF STREAM     DEPTH OF STREAM    STREAM ROUGHNESS
    No.     UPPER     LOWER     UPPER     LOWER     UPPER     LOWER     UPPER     LOWER     UPPER     LOWER   CHANNEL      BANK

     1  3.500E-07 3.500E-07                                                                                 3.000E-02 4.000E-02

  EIGHT POINT CROSS-SECTION DATA FOR SEGMENTS WITH ICALC = 2
    X VALUES X VALUES START FROM LEFT SIDE LOOKING DOWNSTREAM

     SEGMENT NO.        X1        X2        X3        X4        X5        X6        X7        X8
            1      0.000E+00 2.000E+00 4.000E+00 6.000E+00 8.000E+00 1.000E+01 1.200E+01 1.400E+01

    Z VALUES ARE RELATIVE TO STREAMBED ELEVATION

     SEGMENT NO.          Z1        Z2        Z3        Z4        Z5        Z6        Z7        Z8
            1      6.000E+00 4.500E+00 3.500E+00 0.000E+00 3.000E-01 3.500E+00 4.500E+00 6.000E+00



 
 SOLVING FOR HEAD 
                                                   Max.-Head-Change                         Max.-Flux-Residual
  Residual-Control   Outer-Iter.   Inner-Iter.     Column Row Layer    Maximum-Head-Change  Column Row Layer    Maximum-Flux-Residual          L2-NORM 
          0                 1           2            78    4     1      -0.6438322459E-02      50    3    1         0.1605880990E+00      0.2107388326E+00
          0                 2           2            70    1     1       0.5974916816E-03      50    3    1        -0.1940642390E-01      0.2737698839E-01
          0                 3           1            70    1     1      -0.5310192077E-04      50    3    1         0.1791465350E-02      0.2478388736E-02
          0                 4           1            70    1     1       0.4214005423E-05      50    3    1        -0.1432186656E-03      0.1985306388E-03
          0                 5           1            70    1     1      -0.2935596417E-06      50    3    1         0.1006964669E-04      0.1395625185E-04

    ------------------------------------------------
       NWT REQUIRED            5 OUTER ITERATIONS 
       AND A TOTAL OF          7 INNER ITERATIONS.
    ------------------------------------------------

 NO OUTPUT CONTROL FOR STRESS PERIOD   22   TIME STEP    1
 
 WELLS WITH REDUCED PUMPING FOR STRESS PERIOD    22 TIME STEP     1
   LAY   ROW   COL         APPL.Q          ACT.Q        GW-HEAD       CELL-BOT
     1     3    50  -0.100087E+01  -0.543844E+00   0.592420E-03   0.000000E+00
     1     5    55  -0.100087E+01  -0.454339E+00   0.520875E-03   0.000000E+00
 
 
 SOLVING FOR HEAD 
                                                   Max.-Head-Change                         Max.-Flux-Residual
  Residual-Control   Outer-Iter.   Inner-Iter.     Column Row Layer    Maximum-Head-Change  Column Row Layer    Maximum-Flux-Residual          L2-NORM 
          0                 1           2            77    4     1      -0.6987942104E-02      78    5    1        -0.1307373665E-02      0.2497218350E-01
          0                 2           2            70    1     1       0.6547486677E-03      78    5    1         0.1307345699E-03      0.2503422374E-02
          0                 3           1            70    1     1      -0.5810473746E-04      78    5    1        -0.1176613987E-04      0.2328309355E-03
          0                 4           1            70    1     1       0.4609623172E-05      78    3    1         0.9424717682E-06      0.1885105203E-04
          0                 5           1            70    1     1      -0.3211153668E-06      78    3    1        -0.6625507432E-07      0.1327601979E-05

    ------------------------------------------------
       NWT REQUIRED            5 OUTER ITERATIONS 
       AND A TOTAL OF          7 INNER ITERATIONS.
    ------------------------------------------------

 NO OUTPUT CONTROL FOR STRESS PERIOD   22   TIME STEP    2
 
 WELLS WITH REDUCED PUMPING FOR STRESS PERIOD    22 TIME STEP     2
   LAY   ROW   COL         APPL.Q          ACT.Q        GW-HEAD       CELL-BOT
     1     3    50  -0.999934E+00  -0.543649E+00   0.592655E-03   0.000000E+00
     1     5    55  -0.999934E+00  -0.454133E+00   0.521039E-03   0.000000E+00
 
 
 SOLVING FOR HEAD 
                                                   Max.-Head-Change                         Max.-Flux-Residual
  Residual-Control   Outer-Iter.   Inner-Iter.     Column Row Layer    Maximum-Head-Change  Column Row Layer    Maximum-Flux-Residual          L2-NORM 
          0                 1           2            77    5     1      -0.7485334271E-02      77    5    1        -0.1322762089E-02      0.2497579822E-01
          0                 2           2            70    1     1       0.7172017032E-03      77    5    1         0.1322719813E-03      0.2509061801E-02
          0                 3           1            70    1     1      -0.6353416001E-04      77    3    1        -0.1190452421E-04      0.2346092999E-03
          0                 4           1            70    1     1       0.5038051131E-05      78    4    1        -0.9742789064E-06      0.1905287377E-04
          0                 5           1            70    1     1      -0.3509464856E-06      78    4    1         0.6942177500E-07      0.1343329111E-05

    ------------------------------------------------
       NWT REQUIRED            5 OUTER ITERATIONS 
       AND A TOTAL OF          7 INNER ITERATIONS.
    ------------------------------------------------

 NO OUTPUT CONTROL FOR STRESS PERIOD   22   TIME STEP    3
 
 WELLS WITH REDUCED PUMPING FOR STRESS PERIOD    22 TIME STEP     3
   LAY   ROW   COL         APPL.Q          ACT.Q        GW-HEAD       CELL-BOT
     1     3    50  -0.100008E+01  -0.543441E+00   0.592439E-03   0.000000E+00
     1     5    55  -0.100008E+01  -0.453917E+00   0.520828E-03   0.000000E+00
 
 
 SOLVING FOR HEAD 
                                                   Max.-Head-Change                         Max.-Flux-Residual
  Residual-Control   Outer-Iter.   Inner-Iter.     Column Row Layer    Maximum-Head-Change  Column Row Layer    Maximum-Flux-Residual          L2-NORM 
          0                 1           2            71    1     1      -0.8190175191E-02      77    5    1        -0.1315878312E-02      0.2497462864E-01
          0                 2           2            70    1     1       0.7852952244E-03      77    5    1         0.1315827142E-03      0.2510955520E-02
          0                 3           1            70    1     1      -0.6942038910E-04      77    3    1        -0.1184249849E-04      0.2360693186E-03
          0                 4           1            70    1     1       0.5501205567E-05      78    4    1        -0.1031853291E-05      0.1924035824E-04
          0                 5           1            70    1     1      -0.3831725564E-06      78    4    1         0.7402818092E-07      0.1358553627E-05

    ------------------------------------------------
       NWT REQUIRED            5 OUTER ITERATIONS 
       AND A TOTAL OF          7 INNER ITERATIONS.
    ------------------------------------------------

 NO OUTPUT CONTROL FOR STRESS PERIOD   22   TIME STEP    4
 
 WELLS WITH REDUCED PUMPING FOR STRESS PERIOD    22 TIME STEP     4
   LAY   ROW   COL         APPL.Q          ACT.Q        GW-HEAD       CELL-BOT
     1     3    50  -0.999947E+00  -0.543225E+00   0.592332E-03   0.000000E+00
     1     5    55  -0.999947E+00  -0.453692E+00   0.520706E-03   0.000000E+00
 
 
 SOLVING FOR HEAD 
                                                   Max.-Head-Change                         Max.-Flux-Residual
  Residual-Control   Outer-Iter.   Inner-Iter.     Column Row Layer    Maximum-Head-Change  Column Row Layer    Maximum-Flux-Residual          L2-NORM 
          0                 1           2            76    4     1      -0.9286755206E-02      77    5    1        -0.1303577681E-02      0.2499369292E-01
          0                 2           2            70    1     1       0.8595133563E-03      77    5    1         0.1303533702E-03      0.2510946074E-02
          0                 3           1            70    1     1      -0.7579557040E-04      75    4    1         0.1218124020E-04      0.2373771354E-03
          0                 4           1            70    1     1       0.6001057633E-05      77    4    1        -0.1089237836E-05      0.1942816160E-04
          0                 5           1            69    1     1      -0.4179148938E-06      78    4    1         0.7872239216E-07      0.1374446023E-05

    ------------------------------------------------
       NWT REQUIRED            5 OUTER ITERATIONS 
       AND A TOTAL OF          7 INNER ITERATIONS.
    ------------------------------------------------

 NO OUTPUT CONTROL FOR STRESS PERIOD   22   TIME STEP    5
 
 WELLS WITH REDUCED PUMPING FOR STRESS PERIOD    22 TIME STEP     5
   LAY   ROW   COL         APPL.Q          ACT.Q        GW-HEAD       CELL-BOT
     1     3    50  -0.100007E+01  -0.542988E+00   0.592105E-03   0.000000E+00
     1     5    55  -0.100007E+01  -0.453446E+00   0.520482E-03   0.000000E+00
 
 
 SOLVING FOR HEAD 
                                                   Max.-Head-Change                         Max.-Flux-Residual
  Residual-Control   Outer-Iter.   Inner-Iter.     Column Row Layer    Maximum-Head-Change  Column Row Layer    Maximum-Flux-Residual          L2-NORM 
          0                 1           2            76    4     1      -0.1010846243E-01      76    5    1        -0.1317827025E-02      0.2500663452E-01
          0                 2           2            70    1     1       0.9403845928E-03      76    5    1         0.1317797233E-03      0.2512386378E-02
          0                 3           1            70    1     1      -0.8269406556E-04      75    4    1         0.1273953538E-04      0.2388547773E-03
          0                 4           1            69    1     1       0.6541212537E-05      77    4    1        -0.1151223740E-05      0.1963840886E-04
          0                 5           1            69    1     1      -0.4554359158E-06      77    4    1         0.8373334026E-07      0.1392490755E-05

    ------------------------------------------------
       NWT REQUIRED            5 OUTER ITERATIONS 
       AND A TOTAL OF          7 INNER ITERATIONS.
    ------------------------------------------------

 NO OUTPUT CONTROL FOR STRESS PERIOD   22   TIME STEP    6
 
 WELLS WITH REDUCED PUMPING FOR STRESS PERIOD    22 TIME STEP     6
   LAY   ROW   COL         APPL.Q          ACT.Q        GW-HEAD       CELL-BOT
     1     3    50  -0.999942E+00  -0.542728E+00   0.591962E-03   0.000000E+00
     1     5    55  -0.999942E+00  -0.453176E+00   0.520325E-03   0.000000E+00
 
 
 SOLVING FOR HEAD 
                                                   Max.-Head-Change                         Max.-Flux-Residual
  Residual-Control   Outer-Iter.   Inner-Iter.     Column Row Layer    Maximum-Head-Change  Column Row Layer    Maximum-Flux-Residual          L2-NORM 
          0                 1           2            62    4     1      -0.1105087022E-01      76    5    1        -0.1329997734E-02      0.2502035914E-01
          0                 2           2            76    7     1       0.1032054154E-02      76    5    1         0.1329922842E-03      0.2514240971E-02
          0                 3           1            69    1     1      -0.9016133371E-04      75    4    1         0.1323957581E-04      0.2403742541E-03
          0                 4           1            69    1     1       0.7122738546E-05      77    4    1        -0.1211765227E-05      0.1985988949E-04
          0                 5           1            69    1     1      -0.4957209724E-06      76    4    1         0.8912553362E-07      0.1411973085E-05

    ------------------------------------------------
       NWT REQUIRED            5 OUTER ITERATIONS 
       AND A TOTAL OF          7 INNER ITERATIONS.
    ------------------------------------------------

 NO OUTPUT CONTROL FOR STRESS PERIOD   22   TIME STEP    7
 
 WELLS WITH REDUCED PUMPING FOR STRESS PERIOD    22 TIME STEP     7
   LAY   ROW   COL         APPL.Q          ACT.Q        GW-HEAD       CELL-BOT
     1     3    50  -0.100003E+01  -0.542449E+00   0.591718E-03   0.000000E+00
     1     5    55  -0.100003E+01  -0.452886E+00   0.520080E-03   0.000000E+00
 
 
 SOLVING FOR HEAD 
                                                   Max.-Head-Change                         Max.-Flux-Residual
  Residual-Control   Outer-Iter.   Inner-Iter.     Column Row Layer    Maximum-Head-Change  Column Row Layer    Maximum-Flux-Residual          L2-NORM 
          0                 1           2            75    4     1      -0.1243383651E-01      76    5    1        -0.1315093801E-02      0.2502615581E-01
          0                 2           2            76    7     1       0.1132545583E-02      76    5    1         0.1315031543E-03      0.2515470863E-02
          0                 3           1            76    1     1      -0.9833136567E-04      74    4    1         0.1366250092E-04      0.2417929429E-03
          0                 4           1            69    1     1       0.7747432202E-05      76    4    1        -0.1276777850E-05      0.2008491634E-04
          0                 5           1            69    1     1      -0.5388744296E-06      76    4    1         0.9450609006E-07      0.1432588061E-05

    ------------------------------------------------
       NWT REQUIRED            5 OUTER ITERATIONS 
       AND A TOTAL OF          7 INNER ITERATIONS.
    ------------------------------------------------

 NO OUTPUT CONTROL FOR STRESS PERIOD   22   TIME STEP    8
 
 WELLS WITH REDUCED PUMPING FOR STRESS PERIOD    22 TIME STEP     8
   LAY   ROW   COL         APPL.Q          ACT.Q        GW-HEAD       CELL-BOT
     1     3    50  -0.100004E+01  -0.542150E+00   0.591489E-03   0.000000E+00
     1     5    55  -0.100004E+01  -0.452575E+00   0.519845E-03   0.000000E+00
 
 
 SOLVING FOR HEAD 
                                                   Max.-Head-Change                         Max.-Flux-Residual
  Residual-Control   Outer-Iter.   Inner-Iter.     Column Row Layer    Maximum-Head-Change  Column Row Layer    Maximum-Flux-Residual          L2-NORM 
          0                 1           2            75    5     1      -0.1342669800E-01      75    5    1        -0.1327809706E-02      0.2501963179E-01
          0                 2           2            76    7     1       0.1242321345E-02      75    5    1         0.1327754490E-03      0.2517148731E-02
          0                 3           1            76    1     1      -0.1074170328E-03      74    4    1         0.1417270873E-04      0.2432643907E-03
          0                 4           1            69    1     1       0.8417509780E-05      76    4    1        -0.1337919816E-05      0.2031852025E-04
          0                 5           1            69    1     1      -0.5849946697E-06      76    4    1         0.1000725280E-06      0.1454359132E-05

    ------------------------------------------------
       NWT REQUIRED            5 OUTER ITERATIONS 
       AND A TOTAL OF          7 INNER ITERATIONS.
    ------------------------------------------------

 NO OUTPUT CONTROL FOR STRESS PERIOD   22   TIME STEP    9
 
 WELLS WITH REDUCED PUMPING FOR STRESS PERIOD    22 TIME STEP     9
   LAY   ROW   COL         APPL.Q          ACT.Q        GW-HEAD       CELL-BOT
     1     3    50  -0.999959E+00  -0.541830E+00   0.591282E-03   0.000000E+00
     1     5    55  -0.999959E+00  -0.452240E+00   0.519624E-03   0.000000E+00
 
 
 SOLVING FOR HEAD 
                                                   Max.-Head-Change                         Max.-Flux-Residual
  Residual-Control   Outer-Iter.   Inner-Iter.     Column Row Layer    Maximum-Head-Change  Column Row Layer    Maximum-Flux-Residual          L2-NORM 
          0                 1           2            75    6     1      -0.1469272579E-01      75    5    1        -0.1332323448E-02      0.2501869169E-01
          0                 2           2            75    7     1       0.1363954067E-02      75    5    1         0.1332227823E-03      0.2515528280E-02
          0                 3           2            75    7     1      -0.1174601658E-03      73    4    1         0.1446503756E-04      0.2443911838E-03
          0                 4           1            75    7     1       0.9169864525E-05      76    4    1        -0.1396546500E-05      0.2053924035E-04
          0                 5           1            75    7     1      -0.6345188554E-06      76    4    1         0.1055986019E-06      0.1476225471E-05

    ------------------------------------------------
       NWT REQUIRED            5 OUTER ITERATIONS 
       AND A TOTAL OF          8 INNER ITERATIONS.
    ------------------------------------------------

 NO OUTPUT CONTROL FOR STRESS PERIOD   22   TIME STEP   10
 
 WELLS WITH REDUCED PUMPING FOR STRESS PERIOD    22 TIME STEP    10
   LAY   ROW   COL         APPL.Q          ACT.Q        GW-HEAD       CELL-BOT
     1     3    50  -0.100002E+01  -0.541484E+00   0.590997E-03   0.000000E+00
     1     5    55  -0.100002E+01  -0.451880E+00   0.519334E-03   0.000000E+00
 
 
 SOLVING FOR HEAD 
                                                   Max.-Head-Change                         Max.-Flux-Residual
  Residual-Control   Outer-Iter.   Inner-Iter.     Column Row Layer    Maximum-Head-Change  Column Row Layer    Maximum-Flux-Residual          L2-NORM 
          0                 1           2            74    4     1      -0.1669399794E-01      75    5    1        -0.1319546857E-02      0.2505019276E-01
          0                 2           2            75    7     1       0.1495201103E-02      75    5    1         0.1319469593E-03      0.2514741725E-02
          0                 3           2            75    7     1      -0.1280942707E-03      73    4    1         0.1503071019E-04      0.2455926963E-03
          0                 4           1            75    7     1       0.9963513221E-05      75    4    1        -0.1460102819E-05      0.2076891553E-04
          0                 5           1            75    7     1      -0.6879721471E-06      75    4    1         0.1111802366E-06      0.1499374914E-05

    ------------------------------------------------
       NWT REQUIRED            5 OUTER ITERATIONS 
       AND A TOTAL OF          8 INNER ITERATIONS.
    ------------------------------------------------

 NO OUTPUT CONTROL FOR STRESS PERIOD   22   TIME STEP   11
 
 WELLS WITH REDUCED PUMPING FOR STRESS PERIOD    22 TIME STEP    11
   LAY   ROW   COL         APPL.Q          ACT.Q        GW-HEAD       CELL-BOT
     1     3    50  -0.100003E+01  -0.541112E+00   0.590714E-03   0.000000E+00
     1     5    55  -0.100003E+01  -0.451489E+00   0.519041E-03   0.000000E+00
 
 
 SOLVING FOR HEAD 
                                                   Max.-Head-Change                         Max.-Flux-Residual
  Residual-Control   Outer-Iter.   Inner-Iter.     Column Row Layer    Maximum-Head-Change  Column Row Layer    Maximum-Flux-Residual          L2-NORM 
          0                 1           2            74    2     1      -0.1784369557E-01      74    5    1        -0.1342284845E-02      0.2508946203E-01
          0                 2           2            74    7     1       0.1639425565E-02      74    3    1         0.1342157535E-03      0.2518649881E-02
          0                 3           2            74    7     1      -0.1398611402E-03      72    4    1         0.1522906785E-04      0.2471335343E-03
          0                 4           1            74    7     1       0.1084331150E-04      75    4    1        -0.1516430405E-05      0.2102766616E-04
          0                 5           1            74    7     1      -0.7471183503E-06      75    4    1         0.1168018500E-06      0.1525178813E-05

    ------------------------------------------------
       NWT REQUIRED            5 OUTER ITERATIONS 
       AND A TOTAL OF          8 INNER ITERATIONS.
    ------------------------------------------------

 NO OUTPUT CONTROL FOR STRESS PERIOD   22   TIME STEP   12
 
 WELLS WITH REDUCED PUMPING FOR STRESS PERIOD    22 TIME STEP    12
   LAY   ROW   COL         APPL.Q          ACT.Q        GW-HEAD       CELL-BOT
     1     3    50  -0.999962E+00  -0.540696E+00   0.590432E-03   0.000000E+00
     1     5    55  -0.999962E+00  -0.451052E+00   0.518739E-03   0.000000E+00
 
 
 SOLVING FOR HEAD 
                                                   Max.-Head-Change                         Max.-Flux-Residual
  Residual-Control   Outer-Iter.   Inner-Iter.     Column Row Layer    Maximum-Head-Change  Column Row Layer    Maximum-Flux-Residual          L2-NORM 
          0                 1           2            73    4     1      -0.2027422318E-01      74    5    1        -0.1326112862E-02      0.2509846597E-01
          0                 2           2            74    7     1       0.1797311712E-02      74    3    1         0.1326016309E-03      0.2520283776E-02
          0                 3           2            74    7     1      -0.1524312298E-03      72    4    1         0.1579678334E-04      0.2484541421E-03
          0                 4           1            74    7     1       0.1176447316E-04      74    4    1        -0.1575272382E-05      0.2127218294E-04
          0                 5           1            74    7     1      -0.8081884913E-06      76    4    1         0.1225783155E-06      0.1550533742E-05

    ------------------------------------------------
       NWT REQUIRED            5 OUTER ITERATIONS 
       AND A TOTAL OF          8 INNER ITERATIONS.
    ------------------------------------------------

 NO OUTPUT CONTROL FOR STRESS PERIOD   22   TIME STEP   13
 
 WELLS WITH REDUCED PUMPING FOR STRESS PERIOD    22 TIME STEP    13
   LAY   ROW   COL         APPL.Q          ACT.Q        GW-HEAD       CELL-BOT
     1     3    50  -0.999970E+00  -0.540170E+00   0.590034E-03   0.000000E+00
     1     5    55  -0.999970E+00  -0.450442E+00   0.518283E-03   0.000000E+00
 
 
 SOLVING FOR HEAD 
                                                   Max.-Head-Change                         Max.-Flux-Residual
  Residual-Control   Outer-Iter.   Inner-Iter.     Column Row Layer    Maximum-Head-Change  Column Row Layer    Maximum-Flux-Residual          L2-NORM 
          0                 1           2            74    7     1      -0.2165515558E-01      73    3    1        -0.1344759934E-02      0.2512035420E-01
          0                 2           2            74    7     1       0.1970336801E-02      73    3    1         0.1344605450E-03      0.2520670773E-02
          0                 3           2            74    7     1      -0.1662457716E-03      71    4    1         0.1595033881E-04      0.2496265100E-03
          0                 4           1            73    7     1       0.1277797876E-04      75    4    1        -0.1628949295E-05      0.2150930004E-04
          0                 5           1            73    7     1      -0.8754444427E-06      75    4    1         0.1279615578E-06      0.1575942718E-05

    ------------------------------------------------
       NWT REQUIRED            5 OUTER ITERATIONS 
       AND A TOTAL OF          8 INNER ITERATIONS.
    ------------------------------------------------

 NO OUTPUT CONTROL FOR STRESS PERIOD   22   TIME STEP   14
 
 WELLS WITH REDUCED PUMPING FOR STRESS PERIOD    22 TIME STEP    14
   LAY   ROW   COL         APPL.Q          ACT.Q        GW-HEAD       CELL-BOT
     1     3    50  -0.100002E+01  -0.539508E+00   0.589518E-03   0.000000E+00
     1     5    55  -0.100002E+01  -0.449800E+00   0.517789E-03   0.000000E+00
 
 
 SOLVING FOR HEAD 
                                                   Max.-Head-Change                         Max.-Flux-Residual
  Residual-Control   Outer-Iter.   Inner-Iter.     Column Row Layer    Maximum-Head-Change  Column Row Layer    Maximum-Flux-Residual          L2-NORM 
          0                 1           2            72    4     1      -0.2425511656E-01      73    3    1        -0.1328926497E-02      0.2510981182E-01
          0                 2           2            73    7     1       0.2157800602E-02      73    3    1         0.1328805723E-03      0.2522938249E-02
          0                 3           2            73    7     1      -0.1810686407E-03      71    4    1         0.1645942389E-04      0.2509314383E-03
          0                 4           1            73    7     1       0.1384938052E-04      75    4    1        -0.1685454908E-05      0.2175481308E-04
          0                 5           1            73    7     1      -0.9452511754E-06      75    4    1         0.1335942450E-06      0.1602153864E-05

    ------------------------------------------------
       NWT REQUIRED            5 OUTER ITERATIONS 
       AND A TOTAL OF          8 INNER ITERATIONS.
    ------------------------------------------------

 NO OUTPUT CONTROL FOR STRESS PERIOD   22   TIME STEP   15
 
 WELLS WITH REDUCED PUMPING FOR STRESS PERIOD    22 TIME STEP    15
   LAY   ROW   COL         APPL.Q          ACT.Q        GW-HEAD       CELL-BOT
     1     3    50  -0.100002E+01  -0.538904E+00   0.589066E-03   0.000000E+00
     1     5    55  -0.100002E+01  -0.449183E+00   0.517330E-03   0.000000E+00
 
 
 SOLVING FOR HEAD 
                                                   Max.-Head-Change                         Max.-Flux-Residual
  Residual-Control   Outer-Iter.   Inner-Iter.     Column Row Layer    Maximum-Head-Change  Column Row Layer    Maximum-Flux-Residual          L2-NORM 
          0                 1           2            71    4     1      -0.2631869545E-01      72    5    1        -0.1340168905E-02      0.2510552870E-01
          0                 2           2            73    1     1       0.2364410134E-02      72    3    1         0.1340001214E-03      0.2521640202E-02
          0                 3           2            73    7     1      -0.1972761527E-03      70    4    1         0.1661779873E-04      0.2518455733E-03
          0                 4           1            73    7     1       0.1500825881E-04      74    4    1        -0.1737151949E-05      0.2197190099E-04
          0                 5           1            72    7     1      -0.1020394699E-05      74    4    1         0.1391237472E-06      0.1626815548E-05
          0                 6           1            72    7     1       0.6054308347E-07      76    4    1        -0.8971793974E-08      0.1013226335E-06

    ------------------------------------------------
       NWT REQUIRED            6 OUTER ITERATIONS 
       AND A TOTAL OF          9 INNER ITERATIONS.
    ------------------------------------------------

 NO OUTPUT CONTROL FOR STRESS PERIOD   22   TIME STEP   16
 
 WELLS WITH REDUCED PUMPING FOR STRESS PERIOD    22 TIME STEP    16
   LAY   ROW   COL         APPL.Q          ACT.Q        GW-HEAD       CELL-BOT
     1     3    50  -0.100002E+01  -0.538294E+00   0.588609E-03   0.000000E+00
     1     5    55  -0.100002E+01  -0.448547E+00   0.516858E-03   0.000000E+00
 
 
 SOLVING FOR HEAD 
                                                   Max.-Head-Change                         Max.-Flux-Residual
  Residual-Control   Outer-Iter.   Inner-Iter.     Column Row Layer    Maximum-Head-Change  Column Row Layer    Maximum-Flux-Residual          L2-NORM 
          0                 1           2            73    1     1      -0.2888623853E-01      72    3    1        -0.1329004837E-02      0.2510223963E-01
          0                 2           2            72    7     1       0.2588129578E-02      72    3    1         0.1328854095E-03      0.2520378373E-02
          0                 3           2            72    7     1      -0.2148138135E-03      69    4    1         0.1666123334E-04      0.2526902257E-03
          0                 4           1            72    7     1       0.1626299834E-04      73    4    1        -0.1783793522E-05      0.2218107064E-04
          0                 5           1            72    7     1      -0.1100741054E-05      76    4    1         0.1441023354E-06      0.1651035522E-05
          0                 6           1            72    7     1       0.6510249340E-07      76    4    1        -0.9371234455E-08      0.1032444034E-06

    ------------------------------------------------
       NWT REQUIRED            6 OUTER ITERATIONS 
       AND A TOTAL OF          9 INNER ITERATIONS.
    ------------------------------------------------

 NO OUTPUT CONTROL FOR STRESS PERIOD   22   TIME STEP   17
 
 WELLS WITH REDUCED PUMPING FOR STRESS PERIOD    22 TIME STEP    17
   LAY   ROW   COL         APPL.Q          ACT.Q        GW-HEAD       CELL-BOT
     1     3    50  -0.999988E+00  -0.537652E+00   0.588142E-03   0.000000E+00
     1     5    55  -0.999988E+00  -0.447873E+00   0.516368E-03   0.000000E+00
 
 
 SOLVING FOR HEAD 
                                                   Max.-Head-Change                         Max.-Flux-Residual
  Residual-Control   Outer-Iter.   Inner-Iter.     Column Row Layer    Maximum-Head-Change  Column Row Layer    Maximum-Flux-Residual          L2-NORM 
          0                 1           2            70    4     1      -0.3231135697E-01      71    3    1        -0.1330566736E-02      0.2516723781E-01
          0                 2           2            72    7     1       0.2833682086E-02      71    3    1         0.1330398089E-03      0.2514083959E-02
          0                 3           2            72    7     1      -0.2337299469E-03      69    4    1         0.1702802878E-04      0.2525752509E-03
          0                 4           1            72    7     1       0.1758671016E-04      72    4    1        -0.1824979128E-05      0.2231116949E-04
          0                 5           1            71    7     1      -0.1184227338E-05      76    4    1         0.1490196126E-06      0.1670689427E-05
          0                 6           1            71    7     1       0.6983283976E-07      76    4    1        -0.9760189101E-08      0.1049881668E-06

    ------------------------------------------------
       NWT REQUIRED            6 OUTER ITERATIONS 
       AND A TOTAL OF          9 INNER ITERATIONS.
    ------------------------------------------------

 NO OUTPUT CONTROL FOR STRESS PERIOD   22   TIME STEP   18
 
 WELLS WITH REDUCED PUMPING FOR STRESS PERIOD    22 TIME STEP    18
   LAY   ROW   COL         APPL.Q          ACT.Q        GW-HEAD       CELL-BOT
     1     3    50  -0.999983E+00  -0.536966E+00   0.587630E-03   0.000000E+00
     1     5    55  -0.999983E+00  -0.447151E+00   0.515833E-03   0.000000E+00
 
 
 SOLVING FOR HEAD 
                                                   Max.-Head-Change                         Max.-Flux-Residual
  Residual-Control   Outer-Iter.   Inner-Iter.     Column Row Layer    Maximum-Head-Change  Column Row Layer    Maximum-Flux-Residual          L2-NORM 
          0                 1           2            73    7     1      -0.3498062572E-01      70    3    1        -0.1334909628E-02      0.2567073545E-01
          0                 2           2            72    7     1       0.3102854354E-02      70    3    1         0.1334677614E-03      0.2509050137E-02
          0                 3           2            72    7     1      -0.2542926280E-03      68    4    1         0.1722025107E-04      0.2513992761E-03
          0                 4           1            71    7     1       0.1903556469E-04      72    4    1        -0.1869849781E-05      0.2237078864E-04
          0                 5           1            71    7     1      -0.1275903900E-05      74    4    1         0.1541777426E-06      0.1688419547E-05
          0                 6           1            71    7     1       0.7493101681E-07      74    4    1        -0.1014795181E-07      0.1068275832E-06

    ------------------------------------------------
       NWT REQUIRED            6 OUTER ITERATIONS 
       AND A TOTAL OF          9 INNER ITERATIONS.
    ------------------------------------------------

 NO OUTPUT CONTROL FOR STRESS PERIOD   22   TIME STEP   19
 
 WELLS WITH REDUCED PUMPING FOR STRESS PERIOD    22 TIME STEP    19
   LAY   ROW   COL         APPL.Q          ACT.Q        GW-HEAD       CELL-BOT
     1     3    50  -0.999978E+00  -0.536227E+00   0.587079E-03   0.000000E+00
     1     5    55  -0.999978E+00  -0.446372E+00   0.515255E-03   0.000000E+00
 
 
 SOLVING FOR HEAD 
                                                   Max.-Head-Change                         Max.-Flux-Residual
  Residual-Control   Outer-Iter.   Inner-Iter.     Column Row Layer    Maximum-Head-Change  Column Row Layer    Maximum-Flux-Residual          L2-NORM 
          0                 1           2            81    4     1      -0.3930802073E-01      73    3    1        -0.1325186586E-02      0.2632336583E-01
          0                 2           2            72    7     1       0.3399186517E-02      73    3    1         0.1325008217E-03      0.2551212924E-02
          0                 3           2            72    7     1      -0.2768457223E-03      71    4    1         0.1722916782E-04      0.2554109957E-03
          0                 4           1            71    7     1       0.2056926674E-04      74    4    1        -0.1909772541E-05      0.2287135442E-04
          0                 5           1            70    7     1      -0.1370373971E-05      74    4    1         0.1590028997E-06      0.1737788043E-05
          0                 6           1            70    7     1       0.8020664962E-07      74    4    1        -0.1053496845E-07      0.1106387825E-06

    ------------------------------------------------
       NWT REQUIRED            6 OUTER ITERATIONS 
       AND A TOTAL OF          9 INNER ITERATIONS.
    ------------------------------------------------

 NO OUTPUT CONTROL FOR STRESS PERIOD   22   TIME STEP   20
 
 WELLS WITH REDUCED PUMPING FOR STRESS PERIOD    22 TIME STEP    20
   LAY   ROW   COL         APPL.Q          ACT.Q        GW-HEAD       CELL-BOT
     1     3    50  -0.100001E+01  -0.535430E+00   0.586469E-03   0.000000E+00
     1     5    55  -0.100001E+01  -0.445529E+00   0.514617E-03   0.000000E+00
 
 
 SOLVING FOR HEAD 
                                                   Max.-Head-Change                         Max.-Flux-Residual
  Residual-Control   Outer-Iter.   Inner-Iter.     Column Row Layer    Maximum-Head-Change  Column Row Layer    Maximum-Flux-Residual          L2-NORM 
          0                 1           2            78    4     1      -0.4573382922E-01      80    3    1        -0.1334805313E-02      0.2683371097E-01
          0                 2           2            79    7     1       0.3806924954E-02      80    3    1         0.1335103769E-03      0.2619173019E-02
          0                 3           2            79    7     1      -0.3052753380E-03      70    4    1         0.1737547150E-04      0.2630869285E-03
          0                 4           1            71    7     1       0.2226973963E-04      70    4    1        -0.1938255055E-05      0.2367013252E-04
          0                 5           1            71    7     1      -0.1471739786E-05      72    4    1         0.1621449428E-06      0.1805715618E-05
          0                 6           1            69    7     1       0.8571045157E-07      76    4    1        -0.1081678214E-07      0.1154322913E-06

    ------------------------------------------------
       NWT REQUIRED            6 OUTER ITERATIONS 
       AND A TOTAL OF          9 INNER ITERATIONS.
    ------------------------------------------------

 NO OUTPUT CONTROL FOR STRESS PERIOD   22   TIME STEP   21
 
 WELLS WITH REDUCED PUMPING FOR STRESS PERIOD    22 TIME STEP    21
   LAY   ROW   COL         APPL.Q          ACT.Q        GW-HEAD       CELL-BOT
     1     3    50  -0.100000E+01  -0.534558E+00   0.585822E-03   0.000000E+00
     1     5    55  -0.100000E+01  -0.444610E+00   0.513937E-03   0.000000E+00
 
 
 SOLVING FOR HEAD 
                                                   Max.-Head-Change                         Max.-Flux-Residual
  Residual-Control   Outer-Iter.   Inner-Iter.     Column Row Layer    Maximum-Head-Change  Column Row Layer    Maximum-Flux-Residual          L2-NORM 
          0                 1           2            76    4     1      -0.5179443867E-01      78    3    1        -0.1404971231E-02      0.2732538493E-01
          0                 2           2            77    7     1       0.4336294334E-02      78    3    1         0.1405123380E-03      0.2666350571E-02
          0                 3           2            77    7     1      -0.3465796027E-03      66    4    1         0.1728566735E-04      0.2680165466E-03
          0                 4           1            77    7     1       0.2510859751E-04      81    4    1        -0.1956971206E-05      0.2422135065E-04
          0                 5           1            77    7     1      -0.1621227868E-05      80    4    1         0.1704119974E-06      0.1854787609E-05
          0                 6           1            77    7     1       0.9220557277E-07      80    4    1        -0.1171447117E-07      0.1190440570E-06

    ------------------------------------------------
       NWT REQUIRED            6 OUTER ITERATIONS 
       AND A TOTAL OF          9 INNER ITERATIONS.
    ------------------------------------------------

 NO OUTPUT CONTROL FOR STRESS PERIOD   22   TIME STEP   22
 
 WELLS WITH REDUCED PUMPING FOR STRESS PERIOD    22 TIME STEP    22
   LAY   ROW   COL         APPL.Q          ACT.Q        GW-HEAD       CELL-BOT
     1     3    50  -0.999993E+00  -0.533613E+00   0.585117E-03   0.000000E+00
     1     5    55  -0.999993E+00  -0.443611E+00   0.513195E-03   0.000000E+00
 
 
 SOLVING FOR HEAD 
                                                   Max.-Head-Change                         Max.-Flux-Residual
  Residual-Control   Outer-Iter.   Inner-Iter.     Column Row Layer    Maximum-Head-Change  Column Row Layer    Maximum-Flux-Residual          L2-NORM 
          0                 1           3            74    4     1      -0.5727709306E-01      77    3    1        -0.1453080954E-02      0.2773041409E-01
          0                 2           2            76    7     1       0.4870605518E-02      77    3    1         0.1452842921E-03      0.2716671334E-02
          0                 3           2            76    7     1      -0.3886811832E-03      65    4    1         0.1715590255E-04      0.2735624686E-03
          0                 4           1            76    7     1       0.2807212259E-04      78    4    1        -0.2043153271E-05      0.2481417040E-04
          0                 5           1            75    7     1      -0.1802233743E-05      78    4    1         0.1790881665E-06      0.1904670540E-05
          0                 6           1            75    7     1       0.1021440660E-06      78    4    1        -0.1235781255E-07      0.1225962584E-06

    ------------------------------------------------
       NWT REQUIRED            6 OUTER ITERATIONS 
       AND A TOTAL OF         10 INNER ITERATIONS.
    ------------------------------------------------

 NO OUTPUT CONTROL FOR STRESS PERIOD   22   TIME STEP   23
 
 WELLS WITH REDUCED PUMPING FOR STRESS PERIOD    22 TIME STEP    23
   LAY   ROW   COL         APPL.Q          ACT.Q        GW-HEAD       CELL-BOT
     1     3    50  -0.999987E+00  -0.532561E+00   0.584332E-03   0.000000E+00
     1     5    55  -0.999987E+00  -0.442501E+00   0.512371E-03   0.000000E+00
 
 
 SOLVING FOR HEAD 
                                                   Max.-Head-Change                         Max.-Flux-Residual
  Residual-Control   Outer-Iter.   Inner-Iter.     Column Row Layer    Maximum-Head-Change  Column Row Layer    Maximum-Flux-Residual          L2-NORM 
          0                 1           3            70    4     1      -0.6290702407E-01      74    3    1        -0.1471794945E-02      0.2815148855E-01
          0                 2           2            75    7     1       0.5436890074E-02      74    5    1         0.1471591972E-03      0.2746995795E-02
          0                 3           2            75    7     1      -0.4327391248E-03      72    4    1         0.1745321501E-04      0.2762694641E-03
          0                 4           1            74    7     1       0.3114184386E-04      72    4    1        -0.2104905253E-05      0.2514984387E-04
          0                 5           1            73    7     1      -0.1987613973E-05      72    4    1         0.1842389263E-06      0.1935020846E-05
          0                 6           1            73    7     1       0.1122722995E-06      76    4    1        -0.1277905071E-07      0.1249560238E-06

    ------------------------------------------------
       NWT REQUIRED            6 OUTER ITERATIONS 
       AND A TOTAL OF         10 INNER ITERATIONS.
    ------------------------------------------------

 NO OUTPUT CONTROL FOR STRESS PERIOD   22   TIME STEP   24
 
 WELLS WITH REDUCED PUMPING FOR STRESS PERIOD    22 TIME STEP    24
   LAY   ROW   COL         APPL.Q          ACT.Q        GW-HEAD       CELL-BOT
     1     3    50  -0.999995E+00  -0.531407E+00   0.583466E-03   0.000000E+00
     1     5    55  -0.999995E+00  -0.441282E+00   0.511461E-03   0.000000E+00
 
 
 SOLVING FOR HEAD 
                                                   Max.-Head-Change                         Max.-Flux-Residual
  Residual-Control   Outer-Iter.   Inner-Iter.     Column Row Layer    Maximum-Head-Change  Column Row Layer    Maximum-Flux-Residual          L2-NORM 
          0                 1           3            73    4     1      -0.6981157173E-01      74    3    1        -0.1476561434E-02      0.2852043896E-01
          0                 2           2            73    7     1       0.6027590700E-02      74    5    1         0.1476406035E-03      0.2789531022E-02
          0                 3           2            73    7     1      -0.4780941252E-03      77    4    1         0.1800963217E-04      0.2807570179E-03
          0                 4           1            73    7     1       0.3423382044E-04      77    4    1        -0.2165865489E-05      0.2563139011E-04
          0                 5           1            73    7     1      -0.2169868592E-05      76    4    1         0.1910472367E-06      0.1973208584E-05
          0                 6           1            71    7     1       0.1221747534E-06      76    4    1        -0.1328134047E-07      0.1276524015E-06

    ------------------------------------------------
       NWT REQUIRED            6 OUTER ITERATIONS 
       AND A TOTAL OF         10 INNER ITERATIONS.
    ------------------------------------------------

 NO OUTPUT CONTROL FOR STRESS PERIOD   22   TIME STEP   25
 
 WELLS WITH REDUCED PUMPING FOR STRESS PERIOD    22 TIME STEP    25
   LAY   ROW   COL         APPL.Q          ACT.Q        GW-HEAD       CELL-BOT
     1     3    50  -0.100001E+01  -0.530170E+00   0.582535E-03   0.000000E+00
     1     5    55  -0.100001E+01  -0.439967E+00   0.510476E-03   0.000000E+00
 
 
 SOLVING FOR HEAD 
                                                   Max.-Head-Change                         Max.-Flux-Residual
  Residual-Control   Outer-Iter.   Inner-Iter.     Column Row Layer    Maximum-Head-Change  Column Row Layer    Maximum-Flux-Residual          L2-NORM 
          0                 1           3            72    1     1      -0.7635163740E-01      73    3    1        -0.1493041437E-02      0.2884492462E-01
          0                 2           2            72    7     1       0.6636987840E-02      73    3    1         0.1492642999E-03      0.2819176170E-02
          0                 3           2            72    7     1      -0.5247339662E-03      74    4    1         0.1841316593E-04      0.2833793574E-03
          0                 4           1            72    7     1       0.3739891466E-04      74    4    1        -0.2220502958E-05      0.2592208772E-04
          0                 5           1            71    7     1      -0.2355964379E-05      74    4    1         0.1964697667E-06      0.1993735247E-05
          0                 6           1            69    7     1       0.1321653939E-06      74    4    1        -0.1369759595E-07      0.1291447536E-06

    ------------------------------------------------
       NWT REQUIRED            6 OUTER ITERATIONS 
       AND A TOTAL OF         10 INNER ITERATIONS.
    ------------------------------------------------

 NO OUTPUT CONTROL FOR STRESS PERIOD   22   TIME STEP   26
 
 WELLS WITH REDUCED PUMPING FOR STRESS PERIOD    22 TIME STEP    26
   LAY   ROW   COL         APPL.Q          ACT.Q        GW-HEAD       CELL-BOT
     1     3    50  -0.100001E+01  -0.528631E+00   0.581386E-03   0.000000E+00
     1     5    55  -0.100001E+01  -0.438317E+00   0.509249E-03   0.000000E+00
 
 
 SOLVING FOR HEAD 
                                                   Max.-Head-Change                         Max.-Flux-Residual
  Residual-Control   Outer-Iter.   Inner-Iter.     Column Row Layer    Maximum-Head-Change  Column Row Layer    Maximum-Flux-Residual          L2-NORM 
          0                 1           3            73    7     1      -0.8439041479E-01      72    3    1        -0.1489073953E-02      0.2916719789E-01
          0                 2           2            73    7     1       0.7321704608E-02      72    5    1         0.1488762400E-03      0.2842780121E-02
          0                 3           2            73    7     1      -0.5763302180E-03      69    4    1         0.1835750461E-04      0.2847705797E-03
          0                 4           1            72    7     1       0.4081647907E-04      71    4    1        -0.2219628055E-05      0.2607801523E-04
          0                 5           1            71    7     1      -0.2543450058E-05      76    4    1         0.1959968383E-06      0.2000566931E-05
          0                 6           1            67    1     1       0.1421699616E-06      76    4    1        -0.1379286552E-07      0.1296861601E-06

    ------------------------------------------------
       NWT REQUIRED            6 OUTER ITERATIONS 
       AND A TOTAL OF         10 INNER ITERATIONS.
    ------------------------------------------------

 NO OUTPUT CONTROL FOR STRESS PERIOD   22   TIME STEP   27
 
 WELLS WITH REDUCED PUMPING FOR STRESS PERIOD    22 TIME STEP    27
   LAY   ROW   COL         APPL.Q          ACT.Q        GW-HEAD       CELL-BOT
     1     3    50  -0.100000E+01  -0.527075E+00   0.580224E-03   0.000000E+00
     1     5    55  -0.100000E+01  -0.436699E+00   0.508044E-03   0.000000E+00
 
 
 SOLVING FOR HEAD 
                                                   Max.-Head-Change                         Max.-Flux-Residual
  Residual-Control   Outer-Iter.   Inner-Iter.     Column Row Layer    Maximum-Head-Change  Column Row Layer    Maximum-Flux-Residual          L2-NORM 
          0                 1           3            72    1     1      -0.9315202305E-01      74    3    1        -0.1495391183E-02      0.2944168876E-01
          0                 2           2            72    7     1       0.8064133047E-02      74    5    1         0.1495001339E-03      0.2873929501E-02
          0                 3           2            72    7     1      -0.6325251642E-03      67    4    1         0.1846038458E-04      0.2875307343E-03
          0                 4           1            71    7     1       0.4458517394E-04      75    4    1        -0.2251440970E-05      0.2635694569E-04
          0                 5           1            69    7     1      -0.2753287652E-05      76    4    1         0.2020477847E-06      0.2012953901E-05
          0                 6           1            67    7     1       0.1527206000E-06      76    4    1        -0.1421231488E-07      0.1304299828E-06

    ------------------------------------------------
       NWT REQUIRED            6 OUTER ITERATIONS 
       AND A TOTAL OF         10 INNER ITERATIONS.
    ------------------------------------------------

 NO OUTPUT CONTROL FOR STRESS PERIOD   22   TIME STEP   28
 
 WELLS WITH REDUCED PUMPING FOR STRESS PERIOD    22 TIME STEP    28
   LAY   ROW   COL         APPL.Q          ACT.Q        GW-HEAD       CELL-BOT
     1     3    50  -0.100000E+01  -0.525437E+00   0.578999E-03   0.000000E+00
     1     5    55  -0.100000E+01  -0.434976E+00   0.506760E-03   0.000000E+00
 
 
 SOLVING FOR HEAD 
                                                   Max.-Head-Change                         Max.-Flux-Residual
  Residual-Control   Outer-Iter.   Inner-Iter.     Column Row Layer    Maximum-Head-Change  Column Row Layer    Maximum-Flux-Residual          L2-NORM 
          0                 1           3            72    1     1      -0.1022578241E+00      72    3    1        -0.1499877640E-02      0.2963847079E-01
          0                 2           2            72    7     1       0.8834254643E-02      72    5    1         0.1499364314E-03      0.2897307046E-02
          0                 3           2            71    7     1      -0.6907631022E-03      74    4    1         0.1857777348E-04      0.2896709994E-03
          0                 4           1            70    7     1       0.4844337461E-04      74    4    1        -0.2283866722E-05      0.2658115879E-04
          0                 5           1            69    7     1      -0.2968379804E-05      74    4    1         0.2056000756E-06      0.2017445972E-05
          0                 6           1            67    7     1       0.1641059069E-06      74    4    1        -0.1451126153E-07      0.1305322299E-06

    ------------------------------------------------
       NWT REQUIRED            6 OUTER ITERATIONS 
       AND A TOTAL OF         10 INNER ITERATIONS.
    ------------------------------------------------

 NO OUTPUT CONTROL FOR STRESS PERIOD   22   TIME STEP   29
 
 WELLS WITH REDUCED PUMPING FOR STRESS PERIOD    22 TIME STEP    29
   LAY   ROW   COL         APPL.Q          ACT.Q        GW-HEAD       CELL-BOT
     1     3    50  -0.999993E+00  -0.523457E+00   0.577523E-03   0.000000E+00
     1     5    55  -0.999993E+00  -0.432907E+00   0.505220E-03   0.000000E+00
 
 
 SOLVING FOR HEAD 
                                                   Max.-Head-Change                         Max.-Flux-Residual
  Residual-Control   Outer-Iter.   Inner-Iter.     Column Row Layer    Maximum-Head-Change  Column Row Layer    Maximum-Flux-Residual          L2-NORM 
          0                 1           3            75    4     1      -0.1128041964E+00      71    3    1        -0.1491277027E-02      0.2974858333E-01
          0                 2           3            75    7     1       0.9753200098E-02      72    5    1         0.1490810349E-03      0.2912118038E-02
          0                 3           2            75    7     1      -0.7607053836E-03      72    4    1         0.1869124428E-04      0.2910696699E-03
          0                 4           1            74    7     1       0.5288042588E-04      72    4    1        -0.2303657423E-05      0.2673439391E-04
          0                 5           1            67    7     1      -0.3184186157E-05      72    4    1         0.2079256785E-06      0.2013027030E-05
          0                 6           1            65    7     1       0.1758837030E-06      72    4    1        -0.1472017530E-07      0.1299742890E-06

    ------------------------------------------------
       NWT REQUIRED            6 OUTER ITERATIONS 
       AND A TOTAL OF         11 INNER ITERATIONS.
    ------------------------------------------------

 NO OUTPUT CONTROL FOR STRESS PERIOD   22   TIME STEP   30
 
 WELLS WITH REDUCED PUMPING FOR STRESS PERIOD    22 TIME STEP    30
   LAY   ROW   COL         APPL.Q          ACT.Q        GW-HEAD       CELL-BOT
     1     3    50  -0.999995E+00  -0.521007E+00   0.575692E-03   0.000000E+00
     1     5    55  -0.999995E+00  -0.430376E+00   0.503331E-03   0.000000E+00
 



 STREAM LISTING     PERIOD     22   STEP       30

 LAYER ROW COL. STREAM  RCH.   FLOW INTO    STREAM     FLOW OUT OF   OVRLND.    DIRECT     STREAM      STREAM      STREAM     STREAM  STREAMBED   FLOW TO   CHNG. UNSAT. 
                SEG.NO.  NO.   STRM. RCH.    LOSS       STRM. RCH.   RUNOFF     PRECIP       ET         HEAD        DEPTH      WIDTH  CONDCTNC.   WAT. TAB.

   1    4    1     1     1    5.8160E+00  1.9264E-03   5.8141E+00  0.000E+00  0.000E+00  0.000E+00  1.41674E+02  1.824E+00  3.995E+00  8.289E-04  2.202E-03 -2.759E-04
   1    4    2     1     2    5.8141E+00  1.9259E-03   5.8121E+00  0.000E+00  0.000E+00  0.000E+00  1.41374E+02  1.824E+00  3.995E+00  8.288E-04  2.201E-03 -2.755E-04
   1    4    3     1     3    5.8121E+00  1.9254E-03   5.8102E+00  0.000E+00  0.000E+00  0.000E+00  1.41074E+02  1.823E+00  3.994E+00  8.287E-04  2.201E-03 -2.751E-04
   1    4    4     1     4    5.8102E+00  1.9250E-03   5.8083E+00  0.000E+00  0.000E+00  0.000E+00  1.40773E+02  1.823E+00  3.994E+00  8.286E-04  2.200E-03 -2.747E-04
   1    4    5     1     5    5.8083E+00  1.9245E-03   5.8064E+00  0.000E+00  0.000E+00  0.000E+00  1.40473E+02  1.823E+00  3.993E+00  8.285E-04  2.199E-03 -2.743E-04
   1    4    6     1     6    5.8064E+00  1.9240E-03   5.8044E+00  0.000E+00  0.000E+00  0.000E+00  1.40173E+02  1.823E+00  3.993E+00  8.284E-04  2.198E-03 -2.738E-04
   1    4    7     1     7    5.8044E+00  1.9235E-03   5.8025E+00  0.000E+00  0.000E+00  0.000E+00  1.39872E+02  1.822E+00  3.993E+00  8.283E-04  2.197E-03 -2.732E-04
   1    4    8     1     8    5.8025E+00  1.9230E-03   5.8006E+00  0.000E+00  0.000E+00  0.000E+00  1.39572E+02  1.822E+00  3.992E+00  8.282E-04  2.196E-03 -2.726E-04
   1    4    9     1     9    5.8006E+00  1.9225E-03   5.7987E+00  0.000E+00  0.000E+00  0.000E+00  1.39272E+02  1.822E+00  3.992E+00  8.281E-04  2.194E-03 -2.720E-04
   1    4   10     1    10    5.7987E+00  1.9220E-03   5.7968E+00  0.000E+00  0.000E+00  0.000E+00  1.38971E+02  1.821E+00  3.992E+00  8.280E-04  2.193E-03 -2.713E-04
   1    4   11     1    11    5.7968E+00  1.9215E-03   5.7948E+00  0.000E+00  0.000E+00  0.000E+00  1.38671E+02  1.821E+00  3.991E+00  8.279E-04  2.192E-03 -2.706E-04
   1    4   12     1    12    5.7948E+00  1.9210E-03   5.7929E+00  0.000E+00  0.000E+00  0.000E+00  1.38371E+02  1.821E+00  3.991E+00  8.278E-04  2.191E-03 -2.698E-04
   1    4   13     1    13    5.7929E+00  1.9205E-03   5.7910E+00  0.000E+00  0.000E+00  0.000E+00  1.38070E+02  1.820E+00  3.990E+00  8.277E-04  2.189E-03 -2.690E-04
   1    4   14     1    14    5.7910E+00  1.9200E-03   5.7891E+00  0.000E+00  0.000E+00  0.000E+00  1.37770E+02  1.820E+00  3.990E+00  8.276E-04  2.188E-03 -2.681E-04
   1    4   15     1    15    5.7891E+00  1.9195E-03   5.7872E+00  0.000E+00  0.000E+00  0.000E+00  1.37470E+02  1.820E+00  3.990E+00  8.275E-04  2.187E-03 -2.672E-04
   1    4   16     1    16    5.7872E+00  1.9190E-03   5.7852E+00  0.000E+00  0.000E+00  0.000E+00  1.37169E+02  1.819E+00  3.989E+00  8.274E-04  2.185E-03 -2.663E-04
   1    4   17     1    17    5.7852E+00  1.9185E-03   5.7833E+00  0.000E+00  0.000E+00  0.000E+00  1.36869E+02  1.819E+00  3.989E+00  8.273E-04  2.194E-03 -2.756E-04
   1    4   18     1    18    5.7833E+00  1.9180E-03   5.7814E+00  0.000E+00  0.000E+00  0.000E+00  1.36569E+02  1.819E+00  3.989E+00  8.272E-04  2.216E-03 -2.976E-04
   1    4   19     1    19    5.7814E+00  1.9175E-03   5.7795E+00  0.000E+00  0.000E+00  0.000E+00  1.36269E+02  1.819E+00  3.988E+00  8.271E-04  2.239E-03 -3.217E-04
   1    4   20     1    20    5.7795E+00  1.9171E-03   5.7776E+00  0.000E+00  0.000E+00  0.000E+00  1.35968E+02  1.818E+00  3.988E+00  8.270E-04  2.260E-03 -3.433E-04
   1    4   21     1    21    5.7776E+00  1.9166E-03   5.7756E+00  0.000E+00  0.000E+00  0.000E+00  1.35668E+02  1.818E+00  3.987E+00  8.269E-04  2.259E-03 -3.422E-04
   1    4   22     1    22    5.7756E+00  1.9161E-03   5.7737E+00  0.000E+00  0.000E+00  0.000E+00  1.35368E+02  1.818E+00  3.987E+00  8.268E-04  2.257E-03 -3.409E-04
   1    4   23     1    23    5.7737E+00  1.9156E-03   5.7718E+00  0.000E+00  0.000E+00  0.000E+00  1.35067E+02  1.817E+00  3.987E+00  8.267E-04  2.255E-03 -3.398E-04
   1    4   24     1    24    5.7718E+00  1.9151E-03   5.7699E+00  0.000E+00  0.000E+00  0.000E+00  1.34767E+02  1.817E+00  3.986E+00  8.266E-04  2.307E-03 -3.918E-04
   1    4   25     1    25    5.7699E+00  1.9146E-03   5.7680E+00  0.000E+00  0.000E+00  0.000E+00  1.34467E+02  1.817E+00  3.986E+00  8.264E-04  2.382E-03 -4.673E-04
   1    4   26     1    26    5.7680E+00  1.9141E-03   5.7661E+00  0.000E+00  0.000E+00  0.000E+00  1.34166E+02  1.816E+00  3.986E+00  8.263E-04  2.433E-03 -5.193E-04
   1    4   27     1    27    5.7661E+00  1.9136E-03   5.7642E+00  0.000E+00  0.000E+00  0.000E+00  1.33866E+02  1.816E+00  3.985E+00  8.262E-04  2.432E-03 -5.186E-04
   1    4   28     1    28    5.7642E+00  1.9131E-03   5.7622E+00  0.000E+00  0.000E+00  0.000E+00  1.33566E+02  1.816E+00  3.985E+00  8.261E-04  2.431E-03 -5.178E-04
   1    4   29     1    29    5.7622E+00  1.9126E-03   5.7603E+00  0.000E+00  0.000E+00  0.000E+00  1.33265E+02  1.815E+00  3.985E+00  8.260E-04  2.438E-03 -5.249E-04
   1    4   30     1    30    5.7603E+00  1.9121E-03   5.7584E+00  0.000E+00  0.000E+00  0.000E+00  1.32965E+02  1.815E+00  3.984E+00  8.259E-04  2.471E-03 -5.592E-04
   1    4   31     1    31    5.7584E+00  1.9116E-03   5.7565E+00  0.000E+00  0.000E+00  0.000E+00  1.32665E+02  1.815E+00  3.984E+00  8.258E-04  2.508E-03 -5.960E-04
   1    4   32     1    32    5.7565E+00  1.9111E-03   5.7546E+00  0.000E+00  0.000E+00  0.000E+00  1.32364E+02  1.814E+00  3.983E+00  8.257E-04  2.546E-03 -6.350E-04
   1    4   33     1    33    5.7546E+00  1.9107E-03   5.7527E+00  0.000E+00  0.000E+00  0.000E+00  1.32064E+02  1.814E+00  3.983E+00  8.256E-04  2.590E-03 -6.795E-04
   1    4   34     1    34    5.7527E+00  1.9102E-03   5.7508E+00  0.000E+00  0.000E+00  0.000E+00  1.31764E+02  1.814E+00  3.983E+00  8.255E-04  2.650E-03 -7.397E-04
   1    4   35     1    35    5.7508E+00  1.9097E-03   5.7489E+00  0.000E+00  0.000E+00  0.000E+00  1.31464E+02  1.814E+00  3.982E+00  8.254E-04  2.657E-03 -7.470E-04
   1    4   36     1    36    5.7489E+00  1.9092E-03   5.7470E+00  0.000E+00  0.000E+00  0.000E+00  1.31163E+02  1.813E+00  3.982E+00  8.253E-04  2.656E-03 -7.467E-04
   1    4   37     1    37    5.7470E+00  1.9087E-03   5.7451E+00  0.000E+00  0.000E+00  0.000E+00  1.30863E+02  1.813E+00  3.982E+00  8.252E-04  2.655E-03 -7.466E-04
   1    4   38     1    38    5.7451E+00  1.9082E-03   5.7431E+00  0.000E+00  0.000E+00  0.000E+00  1.30563E+02  1.813E+00  3.981E+00  8.251E-04  2.654E-03 -7.462E-04
   1    4   39     1    39    5.7431E+00  1.9077E-03   5.7412E+00  0.000E+00  0.000E+00  0.000E+00  1.30262E+02  1.812E+00  3.981E+00  8.250E-04  2.654E-03 -7.459E-04
   1    4   40     1    40    5.7412E+00  1.9072E-03   5.7393E+00  0.000E+00  0.000E+00  0.000E+00  1.29962E+02  1.812E+00  3.980E+00  8.249E-04  2.665E-03 -7.576E-04
   1    4   41     1    41    5.7393E+00  1.9067E-03   5.7374E+00  0.000E+00  0.000E+00  0.000E+00  1.29662E+02  1.812E+00  3.980E+00  8.248E-04  2.804E-03 -8.977E-04
   1    4   42     1    42    5.7374E+00  1.9062E-03   5.7355E+00  0.000E+00  0.000E+00  0.000E+00  1.29361E+02  1.811E+00  3.980E+00  8.247E-04  2.880E-03 -9.742E-04
   1    4   43     1    43    5.7355E+00  1.9057E-03   5.7336E+00  0.000E+00  0.000E+00  0.000E+00  1.29061E+02  1.811E+00  3.979E+00  8.246E-04  2.915E-03 -1.010E-03
   1    4   44     1    44    5.7336E+00  1.9053E-03   5.7317E+00  0.000E+00  0.000E+00  0.000E+00  1.28761E+02  1.811E+00  3.979E+00  8.245E-04  2.916E-03 -1.011E-03
   1    4   45     1    45    5.7317E+00  1.9048E-03   5.7298E+00  0.000E+00  0.000E+00  0.000E+00  1.28460E+02  1.810E+00  3.979E+00  8.244E-04  2.992E-03 -1.087E-03
   1    4   46     1    46    5.7298E+00  1.9043E-03   5.7279E+00  0.000E+00  0.000E+00  0.000E+00  1.28160E+02  1.810E+00  3.978E+00  8.243E-04  3.194E-03 -1.290E-03
   1    4   47     1    47    5.7279E+00  1.9038E-03   5.7260E+00  0.000E+00  0.000E+00  0.000E+00  1.27860E+02  1.810E+00  3.978E+00  8.242E-04  3.489E-03 -1.585E-03
   1    4   48     1    48    5.7260E+00  1.9033E-03   5.7241E+00  0.000E+00  0.000E+00  0.000E+00  1.27560E+02  1.809E+00  3.977E+00  8.241E-04  3.581E-03 -1.676E-03
   1    4   49     1    49    5.7241E+00  1.9028E-03   5.7222E+00  0.000E+00  0.000E+00  0.000E+00  1.27259E+02  1.809E+00  3.977E+00  8.240E-04  3.647E-03 -1.742E-03
   1    4   50     1    50    5.7222E+00  1.9023E-03   5.7203E+00  0.000E+00  0.000E+00  0.000E+00  1.26959E+02  1.809E+00  3.977E+00  8.239E-04  4.032E-03 -2.127E-03
   1    4   51     1    51    5.7203E+00  1.9018E-03   5.7184E+00  0.000E+00  0.000E+00  0.000E+00  1.26659E+02  1.809E+00  3.976E+00  8.238E-04  3.944E-03 -2.040E-03
   1    4   52     1    52    5.7184E+00  1.9013E-03   5.7165E+00  0.000E+00  0.000E+00  0.000E+00  1.26358E+02  1.808E+00  3.976E+00  8.237E-04  3.899E-03 -1.995E-03
   1    4   53     1    53    5.7165E+00  1.9008E-03   5.7146E+00  0.000E+00  0.000E+00  0.000E+00  1.26058E+02  1.808E+00  3.976E+00  8.236E-04  3.892E-03 -1.989E-03
   1    4   54     1    54    5.7146E+00  1.9004E-03   5.7127E+00  0.000E+00  0.000E+00  0.000E+00  1.25758E+02  1.808E+00  3.975E+00  8.235E-04  3.925E-03 -2.023E-03
   1    4   55     1    55    5.7127E+00  1.8999E-03   5.7108E+00  0.000E+00  0.000E+00  0.000E+00  1.25457E+02  1.807E+00  3.975E+00  8.234E-04  3.996E-03 -2.094E-03
   1    4   56     1    56    5.7108E+00  1.8994E-03   5.7089E+00  0.000E+00  0.000E+00  0.000E+00  1.25157E+02  1.807E+00  3.974E+00  8.233E-04  3.626E-03 -1.725E-03
   1    4   57     1    57    5.7089E+00  1.8989E-03   5.7070E+00  0.000E+00  0.000E+00  0.000E+00  1.24857E+02  1.807E+00  3.974E+00  8.232E-04  3.547E-03 -1.646E-03
   1    4   58     1    58    5.7070E+00  1.8984E-03   5.7051E+00  0.000E+00  0.000E+00  0.000E+00  1.24556E+02  1.806E+00  3.974E+00  8.231E-04  3.489E-03 -1.590E-03
   1    4   59     1    59    5.7051E+00  1.8979E-03   5.7032E+00  0.000E+00  0.000E+00  0.000E+00  1.24256E+02  1.806E+00  3.973E+00  8.230E-04  3.214E-03 -1.316E-03
   1    4   60     1    60    5.7032E+00  1.8974E-03   5.7013E+00  0.000E+00  0.000E+00  0.000E+00  1.23956E+02  1.806E+00  3.973E+00  8.229E-04  2.953E-03 -1.055E-03
   1    4   61     1    61    5.7013E+00  1.8969E-03   5.6994E+00  0.000E+00  0.000E+00  0.000E+00  1.23655E+02  1.805E+00  3.973E+00  8.228E-04  2.919E-03 -1.022E-03
   1    4   62     1    62    5.6994E+00  1.8964E-03   5.6975E+00  0.000E+00  0.000E+00  0.000E+00  1.23355E+02  1.805E+00  3.972E+00  8.227E-04  2.861E-03 -9.644E-04
   1    4   63     1    63    5.6975E+00  1.8960E-03   5.6956E+00  0.000E+00  0.000E+00  0.000E+00  1.23055E+02  1.805E+00  3.972E+00  8.226E-04  2.843E-03 -9.468E-04
   1    4   64     1    64    5.6956E+00  1.8955E-03   5.6937E+00  0.000E+00  0.000E+00  0.000E+00  1.22755E+02  1.805E+00  3.971E+00  8.225E-04  2.770E-03 -8.750E-04
   1    4   65     1    65    5.6937E+00  1.8950E-03   5.6918E+00  0.000E+00  0.000E+00  0.000E+00  1.22454E+02  1.804E+00  3.971E+00  8.224E-04  2.703E-03 -8.084E-04
   1    4   66     1    66    5.6918E+00  1.8945E-03   5.6899E+00  0.000E+00  0.000E+00  0.000E+00  1.22154E+02  1.804E+00  3.971E+00  8.223E-04  2.618E-03 -7.235E-04
   1    4   67     1    67    5.6899E+00  1.8940E-03   5.6880E+00  0.000E+00  0.000E+00  0.000E+00  1.21854E+02  1.804E+00  3.970E+00  8.222E-04  2.590E-03 -6.961E-04
   1    4   68     1    68    5.6880E+00  1.8935E-03   5.6861E+00  0.000E+00  0.000E+00  0.000E+00  1.21553E+02  1.803E+00  3.970E+00  8.221E-04  2.588E-03 -6.948E-04
   1    4   69     1    69    5.6861E+00  1.8930E-03   5.6842E+00  0.000E+00  0.000E+00  0.000E+00  1.21253E+02  1.803E+00  3.970E+00  8.220E-04  2.586E-03 -6.932E-04
   1    4   70     1    70    5.6842E+00  1.8925E-03   5.6823E+00  0.000E+00  0.000E+00  0.000E+00  1.20953E+02  1.803E+00  3.969E+00  8.219E-04  2.584E-03 -6.918E-04
   1    4   71     1    71    5.6823E+00  1.8921E-03   5.6804E+00  0.000E+00  0.000E+00  0.000E+00  1.20652E+02  1.802E+00  3.969E+00  8.218E-04  2.583E-03 -6.906E-04
   1    4   72     1    72    5.6804E+00  1.8916E-03   5.6786E+00  0.000E+00  0.000E+00  0.000E+00  1.20352E+02  1.802E+00  3.969E+00  8.217E-04  2.581E-03 -6.894E-04
   1    4   73     1    73    5.6786E+00  1.8911E-03   5.6767E+00  0.000E+00  0.000E+00  0.000E+00  1.20052E+02  1.802E+00  3.968E+00  8.216E-04  2.546E-03 -6.549E-04
   1    4   74     1    74    5.6767E+00  1.8906E-03   5.6748E+00  0.000E+00  0.000E+00  0.000E+00  1.19751E+02  1.801E+00  3.968E+00  8.215E-04  2.455E-03 -5.640E-04
   1    4   75     1    75    5.6748E+00  1.8901E-03   5.6729E+00  0.000E+00  0.000E+00  0.000E+00  1.19451E+02  1.801E+00  3.967E+00  8.214E-04  2.394E-03 -5.037E-04
   1    4   76     1    76    5.6729E+00  1.8896E-03   5.6710E+00  0.000E+00  0.000E+00  0.000E+00  1.19151E+02  1.801E+00  3.967E+00  8.213E-04  2.358E-03 -4.689E-04
   1    4   77     1    77    5.6710E+00  1.8891E-03   5.6691E+00  0.000E+00  0.000E+00  0.000E+00  1.18851E+02  1.801E+00  3.967E+00  8.212E-04  2.358E-03 -4.692E-04
   1    4   78     1    78    5.6691E+00  1.8886E-03   5.6672E+00  0.000E+00  0.000E+00  0.000E+00  1.18550E+02  1.800E+00  3.966E+00  8.211E-04  2.358E-03 -4.695E-04
   1    4   79     1    79    5.6672E+00  1.8882E-03   5.6653E+00  0.000E+00  0.000E+00  0.000E+00  1.18250E+02  1.800E+00  3.966E+00  8.210E-04  2.272E-03 -3.836E-04
   1    4   80     1    80    5.6653E+00  1.8877E-03   5.6634E+00  0.000E+00  0.000E+00  0.000E+00  1.17950E+02  1.800E+00  3.966E+00  8.209E-04  2.184E-03 -2.968E-04
   1    4   81     1    81    5.6634E+00  1.8872E-03   5.6616E+00  0.000E+00  0.000E+00  0.000E+00  1.17649E+02  1.799E+00  3.965E+00  8.208E-04  2.180E-03 -2.924E-04
   1    4   82     1    82    5.6616E+00  1.8867E-03   5.6597E+00  0.000E+00  0.000E+00  0.000E+00  1.17349E+02  1.799E+00  3.965E+00  8.207E-04  2.181E-03 -2.941E-04
   1    4   83     1    83    5.6597E+00  1.8862E-03   5.6578E+00  0.000E+00  0.000E+00  0.000E+00  1.17049E+02  1.799E+00  3.964E+00  8.206E-04  2.182E-03 -2.957E-04
   1    4   84     1    84    5.6578E+00  1.8857E-03   5.6559E+00  0.000E+00  0.000E+00  0.000E+00  1.16748E+02  1.798E+00  3.964E+00  8.205E-04  2.183E-03 -2.976E-04
   1    4   85     1    85    5.6559E+00  1.8852E-03   5.6540E+00  0.000E+00  0.000E+00  0.000E+00  1.16448E+02  1.798E+00  3.964E+00  8.204E-04  2.185E-03 -2.998E-04
   1    4   86     1    86    5.6540E+00  1.8848E-03   5.6521E+00  0.000E+00  0.000E+00  0.000E+00  1.16148E+02  1.798E+00  3.963E+00  8.203E-04  2.187E-03 -3.023E-04
   1    4   87     1    87    5.6521E+00  1.8843E-03   5.6502E+00  0.000E+00  0.000E+00  0.000E+00  1.15847E+02  1.797E+00  3.963E+00  8.202E-04  2.190E-03 -3.053E-04
   1    4   88     1    88    5.6502E+00  1.8838E-03   5.6484E+00  0.000E+00  0.000E+00  0.000E+00  1.15547E+02  1.797E+00  3.963E+00  8.201E-04  2.192E-03 -3.087E-04
   1    4   89     1    89    5.6484E+00  1.8833E-03   5.6465E+00  0.000E+00  0.000E+00  0.000E+00  1.15247E+02  1.797E+00  3.962E+00  8.200E-04  2.196E-03 -3.126E-04
   1    4   90     1    90    5.6465E+00  1.8828E-03   5.6446E+00  0.000E+00  0.000E+00  0.000E+00  1.14946E+02  1.796E+00  3.962E+00  8.199E-04  2.200E-03 -3.172E-04
   1    4   91     1    91    5.6446E+00  1.8823E-03   5.6427E+00  0.000E+00  0.000E+00  0.000E+00  1.14646E+02  1.796E+00  3.961E+00  8.198E-04  2.205E-03 -3.225E-04
   1    4   92     1    92    5.6427E+00  1.8818E-03   5.6408E+00  0.000E+00  0.000E+00  0.000E+00  1.14346E+02  1.796E+00  3.961E+00  8.197E-04  2.210E-03 -3.285E-04
   1    4   93     1    93    5.6408E+00  1.8814E-03   5.6389E+00  0.000E+00  0.000E+00  0.000E+00  1.14046E+02  1.796E+00  3.961E+00  8.196E-04  2.217E-03 -3.354E-04
   1    4   94     1    94    5.6389E+00  1.8809E-03   5.6371E+00  0.000E+00  0.000E+00  0.000E+00  1.13745E+02  1.795E+00  3.960E+00  8.195E-04  2.224E-03 -3.432E-04
   1    4   95     1    95    5.6371E+00  1.8804E-03   5.6352E+00  0.000E+00  0.000E+00  0.000E+00  1.13445E+02  1.795E+00  3.960E+00  8.194E-04  2.232E-03 -3.520E-04
   1    4   96     1    96    5.6352E+00  1.8799E-03   5.6333E+00  0.000E+00  0.000E+00  0.000E+00  1.13145E+02  1.795E+00  3.960E+00  8.193E-04  2.242E-03 -3.618E-04
   1    4   97     1    97    5.6333E+00  1.8794E-03   5.6314E+00  0.000E+00  0.000E+00  0.000E+00  1.12844E+02  1.794E+00  3.959E+00  8.192E-04  2.252E-03 -3.725E-04
   1    4   98     1    98    5.6314E+00  1.8789E-03   5.6295E+00  0.000E+00  0.000E+00  0.000E+00  1.12544E+02  1.794E+00  3.959E+00  8.191E-04  2.263E-03 -3.842E-04
   1    4   99     1    99    5.6295E+00  1.8784E-03   5.6277E+00  0.000E+00  0.000E+00  0.000E+00  1.12244E+02  1.794E+00  3.959E+00  8.190E-04  2.275E-03 -3.966E-04
   1    4  100     1   100    5.6277E+00  1.8780E-03   5.6258E+00  0.000E+00  0.000E+00  0.000E+00  1.11943E+02  1.793E+00  3.958E+00  8.189E-04  2.287E-03 -4.095E-04



1
  VOLUMETRIC BUDGET FOR UNSATURATED ZONE BENEATH STREAMS AT END OF TIME STEP    30 STRESS PERIOD  22
  ------------------------------------------------------------------------------------------------

    CUMULATIVE VOLUMES             L**3    RATES FOR THIS TIME STEP         L**3/T
    ------------------                     ------------------------


          STREAM LOSS =     26662802.0000            STREAM LOSS =            0.1902
    CHANGE IN STORAGE =      1647115.3750      CHANGE IN STORAGE =       -6.8061E-02
       RECHARGE TO GW =     25022502.0000         RECHARGE TO GW =            0.2583

             TOTAL IN =     26662802.0000               TOTAL IN =            0.2583

            TOTAL OUT =     26669618.0000              TOTAL OUT =            0.2583

             IN - OUT =        -6816.0000               IN - OUT =       -2.0474E-05

  PERCENT DISCREPANCY =           -0.01      PERCENT DISCREPANCY =            -0.00



1
  VOLUMETRIC BUDGET FOR ENTIRE MODEL AT END OF TIME STEP   30, STRESS PERIOD  22
  ------------------------------------------------------------------------------

     CUMULATIVE VOLUMES      L**3       RATES FOR THIS TIME STEP      L**3/T
     ------------------                 ------------------------

           IN:                                      IN:
           ---                                      ---
             STORAGE     =    85482416.0000               STORAGE     =           0.7544
       CONSTANT HEAD     =           0.0000         CONSTANT HEAD     =           0.0000
               WELLS     =           0.0000                 WELLS     =           0.0000
     HEAD DEP BOUNDS     =           0.0000       HEAD DEP BOUNDS     =           0.0000
      STREAM LEAKAGE     =    25022428.0000        STREAM LEAKAGE     =           0.2583

                TOTAL IN =   110504848.0000                  TOTAL IN =           1.0127

          OUT:                                     OUT:
          ----                                     ----
             STORAGE     =     3026918.2500               STORAGE     =           0.0000
       CONSTANT HEAD     =           0.0000         CONSTANT HEAD     =           0.0000
               WELLS     =    91377704.0000                 WELLS     =           0.9514
     HEAD DEP BOUNDS     =    16100267.0000       HEAD DEP BOUNDS     =       6.1317E-02
      STREAM LEAKAGE     =           0.0000        STREAM LEAKAGE     =           0.0000

               TOTAL OUT =   110504888.0000                 TOTAL OUT =           1.0127

                IN - OUT =         -40.0000                  IN - OUT =           0.0000

     PERCENT DISCREPANCY =          -0.00         PERCENT DISCREPANCY =           0.00






         TIME SUMMARY AT END OF TIME STEP   30 IN STRESS PERIOD   22
                    SECONDS     MINUTES      HOURS       DAYS        YEARS
                    -----------------------------------------------------------
   TIME STEP LENGTH 2.49961E+05  4166.0      69.434      2.8931     7.92080E-03
 STRESS PERIOD TIME 2.59200E+06  43200.      720.00      30.000     8.21355E-02
         TOTAL TIME 5.70240E+07 9.50399E+05  15840.      660.00      1.8070    
1
1
                            STRESS PERIOD NO.   23, LENGTH =   2592000.    
                            -----------------------------------------------

                              NUMBER OF TIME STEPS =    30

                               MULTIPLIER FOR DELT =     1.100

                            INITIAL TIME STEP SIZE =   15757.40    

 REUSING NON-PARAMETER WELLS FROM LAST STRESS PERIOD

      1 WELL 

 REUSING NON-PARAMETER GHB CELLS FROM LAST STRESS PERIOD

      7 GHB CELLS



 CLASSIFICATION & COUNT OF STREAM SEGMENTS BASED ON SOURCE OF INFLOW:

                HEADWATER     DIVERSION     RECEIVES TRIBUTARY FLOW
                ---------     ---------     -----------------------
                     1              0               0



                    INPUT DATA FOR EACH STREAM SEGMENT
 ---------------------------------------------------------------------------------------------

 SEGMENT    SEG.     INFLOW   OVERLAND   STREAM    STREAM   ICALC  OUTFLOW  DIVERSION PRIORITY
    NO.    LENGTH     RATE     RUNOFF      ET       PPT.    METH.  TO SEG.  FROM SEG.    NO.

      1  2.000E+04 4.296E+00 0.000E+00 0.000E+00 0.000E+00    2        0        0        0


         STREAMBED PROPERTIES AND STREAM DIMENSIONS

 SEGMENT     BED HYD. COND.      BED THICKNESS     ELEV.-TOP OF BED     WIDTH OF STREAM     DEPTH OF STREAM    STREAM ROUGHNESS
    No.     UPPER     LOWER     UPPER     LOWER     UPPER     LOWER     UPPER     LOWER     UPPER     LOWER   CHANNEL      BANK

     1  3.500E-07 3.500E-07                                                                                 3.000E-02 4.000E-02

  EIGHT POINT CROSS-SECTION DATA FOR SEGMENTS WITH ICALC = 2
    X VALUES X VALUES START FROM LEFT SIDE LOOKING DOWNSTREAM

     SEGMENT NO.        X1        X2        X3        X4        X5        X6        X7        X8
            1      0.000E+00 2.000E+00 4.000E+00 6.000E+00 8.000E+00 1.000E+01 1.200E+01 1.400E+01

    Z VALUES ARE RELATIVE TO STREAMBED ELEVATION

     SEGMENT NO.          Z1        Z2        Z3        Z4        Z5        Z6        Z7        Z8
            1      6.000E+00 4.500E+00 3.500E+00 0.000E+00 3.000E-01 3.500E+00 4.500E+00 6.000E+00



 
 SOLVING FOR HEAD 
                                                   Max.-Head-Change                         Max.-Flux-Residual
  Residual-Control   Outer-Iter.   Inner-Iter.     Column Row Layer    Maximum-Head-Change  Column Row Layer    Maximum-Flux-Residual          L2-NORM 
          0                 1           2            73    4     1      -0.7278474385E-02      50    3    1         0.2182928008E+00      0.2846909803E+00
          0                 2           2            74    7     1       0.6976322470E-03      55    5    1        -0.1255815568E-01      0.1428779722E-01
          0                 3           1            74    1     1      -0.6174801945E-04      55    5    1         0.1332377045E-02      0.1440564599E-02
          0                 4           1            74    1     1       0.4890411529E-05      55    5    1        -0.1047532736E-03      0.1156512720E-03
          0                 5           1            74    1     1      -0.3405267837E-06      55    5    1         0.7376059973E-05      0.8311346132E-05

    ------------------------------------------------
       NWT REQUIRED            5 OUTER ITERATIONS 
       AND A TOTAL OF          7 INNER ITERATIONS.
    ------------------------------------------------

 NO OUTPUT CONTROL FOR STRESS PERIOD   23   TIME STEP    1
 
 WELLS WITH REDUCED PUMPING FOR STRESS PERIOD    23 TIME STEP     1
   LAY   ROW   COL         APPL.Q          ACT.Q        GW-HEAD       CELL-BOT
     1     3    50  -0.581014E+00  -0.520765E+00   0.896353E-03   0.000000E+00
     1     5    55  -0.581014E+00  -0.430157E+00   0.739678E-03   0.000000E+00
 
 
 SOLVING FOR HEAD 
                                                   Max.-Head-Change                         Max.-Flux-Residual
  Residual-Control   Outer-Iter.   Inner-Iter.     Column Row Layer    Maximum-Head-Change  Column Row Layer    Maximum-Flux-Residual          L2-NORM 
          0                 1           2            73    2     1      -0.7926755365E-02      73    3    1        -0.1526936094E-02      0.2974245758E-01
          0                 2           2            74    7     1       0.7669280141E-03      73    3    1         0.1526896706E-03      0.2928951253E-02
          0                 3           1            74    1     1      -0.6777513772E-04      73    3    1        -0.1374215015E-04      0.2728444393E-03
          0                 4           1            73    1     1       0.5364004821E-05      73    5    1         0.1100747125E-05      0.2228402013E-04
          0                 5           1            73    1     1      -0.3734296767E-06      73    3    1        -0.7738144703E-07      0.1578207803E-05

    ------------------------------------------------
       NWT REQUIRED            5 OUTER ITERATIONS 
       AND A TOTAL OF          7 INNER ITERATIONS.
    ------------------------------------------------

 NO OUTPUT CONTROL FOR STRESS PERIOD   23   TIME STEP    2
 
 WELLS WITH REDUCED PUMPING FOR STRESS PERIOD    23 TIME STEP     2
   LAY   ROW   COL         APPL.Q          ACT.Q        GW-HEAD       CELL-BOT
     1     3    50  -0.579962E+00  -0.520629E+00   0.897985E-03   0.000000E+00
     1     5    55  -0.579962E+00  -0.429999E+00   0.740572E-03   0.000000E+00
 
 
 SOLVING FOR HEAD 
                                                   Max.-Head-Change                         Max.-Flux-Residual
  Residual-Control   Outer-Iter.   Inner-Iter.     Column Row Layer    Maximum-Head-Change  Column Row Layer    Maximum-Flux-Residual          L2-NORM 
          0                 1           2            73    2     1      -0.8727941756E-02      73    3    1        -0.1525762137E-02      0.2972593616E-01
          0                 2           2            74    7     1       0.8424245883E-03      73    3    1         0.1525714039E-03      0.2928842346E-02
          0                 3           1            73    1     1      -0.7432659485E-04      73    3    1        -0.1373152134E-04      0.2737694022E-03
          0                 4           1            73    1     1       0.5877705567E-05      73    5    1         0.1099895822E-05      0.2243865514E-04
          0                 5           1            73    1     1      -0.4090492634E-06      78    4    1         0.7807255997E-07      0.1592594725E-05

    ------------------------------------------------
       NWT REQUIRED            5 OUTER ITERATIONS 
       AND A TOTAL OF          7 INNER ITERATIONS.
    ------------------------------------------------

 NO OUTPUT CONTROL FOR STRESS PERIOD   23   TIME STEP    3
 
 WELLS WITH REDUCED PUMPING FOR STRESS PERIOD    23 TIME STEP     3
   LAY   ROW   COL         APPL.Q          ACT.Q        GW-HEAD       CELL-BOT
     1     3    50  -0.580047E+00  -0.520434E+00   0.897436E-03   0.000000E+00
     1     5    55  -0.580047E+00  -0.429782E+00   0.740169E-03   0.000000E+00
 
 
 SOLVING FOR HEAD 
                                                   Max.-Head-Change                         Max.-Flux-Residual
  Residual-Control   Outer-Iter.   Inner-Iter.     Column Row Layer    Maximum-Head-Change  Column Row Layer    Maximum-Flux-Residual          L2-NORM 
          0                 1           2            74    7     1      -0.9605828906E-02      73    3    1        -0.1520507665E-02      0.2973304565E-01
          0                 2           2            73    1     1       0.9248413042E-03      73    3    1         0.1520457219E-03      0.2930557439E-02
          0                 3           1            73    1     1      -0.8142728563E-04      73    3    1        -0.1368422819E-04      0.2748704852E-03
          0                 4           1            73    1     1       0.6431729883E-05      77    4    1        -0.1122452380E-05      0.2261314531E-04
          0                 5           1            73    1     1      -0.4473912710E-06      77    4    1         0.8321860534E-07      0.1608886238E-05

    ------------------------------------------------
       NWT REQUIRED            5 OUTER ITERATIONS 
       AND A TOTAL OF          7 INNER ITERATIONS.
    ------------------------------------------------

 NO OUTPUT CONTROL FOR STRESS PERIOD   23   TIME STEP    4
 
 WELLS WITH REDUCED PUMPING FOR STRESS PERIOD    23 TIME STEP     4
   LAY   ROW   COL         APPL.Q          ACT.Q        GW-HEAD       CELL-BOT
     1     3    50  -0.579969E+00  -0.520183E+00   0.897068E-03   0.000000E+00
     1     5    55  -0.579969E+00  -0.429519E+00   0.739874E-03   0.000000E+00
 
 
 SOLVING FOR HEAD 
                                                   Max.-Head-Change                         Max.-Flux-Residual
  Residual-Control   Outer-Iter.   Inner-Iter.     Column Row Layer    Maximum-Head-Change  Column Row Layer    Maximum-Flux-Residual          L2-NORM 
          0                 1           2            73    1     1      -0.1057321851E-01      72    3    1        -0.1517000817E-02      0.2972885553E-01
          0                 2           2            73    1     1       0.1014625427E-02      72    3    1         0.1516941676E-03      0.2931514148E-02
          0                 3           1            73    1     1      -0.8911649143E-04      72    3    1        -0.1365260808E-04      0.2759106095E-03
          0                 4           1            73    1     1       0.7029209662E-05      77    4    1        -0.1181756730E-05      0.2278904259E-04
          0                 5           1            73    1     1      -0.4886385678E-06      77    4    1         0.8854749645E-07      0.1625893326E-05

    ------------------------------------------------
       NWT REQUIRED            5 OUTER ITERATIONS 
       AND A TOTAL OF          7 INNER ITERATIONS.
    ------------------------------------------------

 NO OUTPUT CONTROL FOR STRESS PERIOD   23   TIME STEP    5
 
 WELLS WITH REDUCED PUMPING FOR STRESS PERIOD    23 TIME STEP     5
   LAY   ROW   COL         APPL.Q          ACT.Q        GW-HEAD       CELL-BOT
     1     3    50  -0.580040E+00  -0.519919E+00   0.896409E-03   0.000000E+00
     1     5    55  -0.580040E+00  -0.429260E+00   0.739428E-03   0.000000E+00
 
 
 SOLVING FOR HEAD 
                                                   Max.-Head-Change                         Max.-Flux-Residual
  Residual-Control   Outer-Iter.   Inner-Iter.     Column Row Layer    Maximum-Head-Change  Column Row Layer    Maximum-Flux-Residual          L2-NORM 
          0                 1           2            73    1     1      -0.1163090480E-01      73    3    1        -0.1513113538E-02      0.2972220488E-01
          0                 2           2            73    1     1       0.1112267540E-02      73    3    1         0.1513054682E-03      0.2931199785E-02
          0                 3           1            73    1     1      -0.9742223431E-04      73    3    1        -0.1361765574E-04      0.2768092238E-03
          0                 4           1            73    1     1       0.7670910966E-05      77    4    1        -0.1240646363E-05      0.2296061230E-04
          0                 5           1            73    1     1      -0.5327787949E-06      77    4    1         0.9397494338E-07      0.1643330144E-05

    ------------------------------------------------
       NWT REQUIRED            5 OUTER ITERATIONS 
       AND A TOTAL OF          7 INNER ITERATIONS.
    ------------------------------------------------

 NO OUTPUT CONTROL FOR STRESS PERIOD   23   TIME STEP    6
 
 WELLS WITH REDUCED PUMPING FOR STRESS PERIOD    23 TIME STEP     6
   LAY   ROW   COL         APPL.Q          ACT.Q        GW-HEAD       CELL-BOT
     1     3    50  -0.579967E+00  -0.519656E+00   0.896011E-03   0.000000E+00
     1     5    55  -0.579967E+00  -0.428995E+00   0.739126E-03   0.000000E+00
 
 
 SOLVING FOR HEAD 
                                                   Max.-Head-Change                         Max.-Flux-Residual
  Residual-Control   Outer-Iter.   Inner-Iter.     Column Row Layer    Maximum-Head-Change  Column Row Layer    Maximum-Flux-Residual          L2-NORM 
          0                 1           2            73    1     1      -0.1279309467E-01      73    3    1        -0.1510089357E-02      0.2971639730E-01
          0                 2           2            73    1     1       0.1218454136E-02      73    3    1         0.1510029964E-03      0.2930644781E-02
          0                 3           1            73    1     1      -0.1063845435E-03      73    3    1        -0.1359046366E-04      0.2776914108E-03
          0                 4           1            73    1     1       0.8359439972E-05      77    4    1        -0.1298939939E-05      0.2313699814E-04
          0                 5           1            73    1     1      -0.5799691981E-06      77    4    1         0.9948134227E-07      0.1661737011E-05

    ------------------------------------------------
       NWT REQUIRED            5 OUTER ITERATIONS 
       AND A TOTAL OF          7 INNER ITERATIONS.
    ------------------------------------------------

 NO OUTPUT CONTROL FOR STRESS PERIOD   23   TIME STEP    7
 
 WELLS WITH REDUCED PUMPING FOR STRESS PERIOD    23 TIME STEP     7
   LAY   ROW   COL         APPL.Q          ACT.Q        GW-HEAD       CELL-BOT
     1     3    50  -0.580016E+00  -0.519383E+00   0.895374E-03   0.000000E+00
     1     5    55  -0.580016E+00  -0.428718E+00   0.738674E-03   0.000000E+00
 
 
 SOLVING FOR HEAD 
                                                   Max.-Head-Change                         Max.-Flux-Residual
  Residual-Control   Outer-Iter.   Inner-Iter.     Column Row Layer    Maximum-Head-Change  Column Row Layer    Maximum-Flux-Residual          L2-NORM 
          0                 1           2            73    1     1      -0.1406981101E-01      72    3    1        -0.1519582955E-02      0.2971671281E-01
          0                 2           2            73    1     1       0.1334791798E-02      72    3    1         0.1519506534E-03      0.2929833462E-02
          0                 3           2            72    1     1      -0.1161652603E-03      72    3    1        -0.1367580521E-04      0.2785123064E-03
          0                 4           1            72    1     1       0.9111915734E-05      76    4    1        -0.1356523697E-05      0.2331653044E-04
          0                 5           1            72    1     1      -0.6315369403E-06      76    4    1         0.1047620390E-06      0.1681160981E-05

    ------------------------------------------------
       NWT REQUIRED            5 OUTER ITERATIONS 
       AND A TOTAL OF          8 INNER ITERATIONS.
    ------------------------------------------------

 NO OUTPUT CONTROL FOR STRESS PERIOD   23   TIME STEP    8
 
 WELLS WITH REDUCED PUMPING FOR STRESS PERIOD    23 TIME STEP     8
   LAY   ROW   COL         APPL.Q          ACT.Q        GW-HEAD       CELL-BOT
     1     3    50  -0.580024E+00  -0.519096E+00   0.894784E-03   0.000000E+00
     1     5    55  -0.580024E+00  -0.428422E+00   0.738243E-03   0.000000E+00
 
 
 SOLVING FOR HEAD 
                                                   Max.-Head-Change                         Max.-Flux-Residual
  Residual-Control   Outer-Iter.   Inner-Iter.     Column Row Layer    Maximum-Head-Change  Column Row Layer    Maximum-Flux-Residual          L2-NORM 
          0                 1           2            73    1     1      -0.1546943433E-01      77    5    1        -0.1517470453E-02      0.2971664557E-01
          0                 2           2            72    1     1       0.1461645812E-02      77    5    1         0.1517393471E-03      0.2929773756E-02
          0                 3           2            72    1     1      -0.1268299478E-03      77    5    1        -0.1365685051E-04      0.2794210995E-03
          0                 4           1            72    1     1       0.9923575267E-05      76    4    1        -0.1415073873E-05      0.2350462854E-04
          0                 5           1            72    1     1      -0.6867415956E-06      76    4    1         0.1105956606E-06      0.1701648976E-05

    ------------------------------------------------
       NWT REQUIRED            5 OUTER ITERATIONS 
       AND A TOTAL OF          8 INNER ITERATIONS.
    ------------------------------------------------

 NO OUTPUT CONTROL FOR STRESS PERIOD   23   TIME STEP    9
 
 WELLS WITH REDUCED PUMPING FOR STRESS PERIOD    23 TIME STEP     9
   LAY   ROW   COL         APPL.Q          ACT.Q        GW-HEAD       CELL-BOT
     1     3    50  -0.579976E+00  -0.518787E+00   0.894252E-03   0.000000E+00
     1     5    55  -0.579976E+00  -0.428104E+00   0.737838E-03   0.000000E+00
 
 
 SOLVING FOR HEAD 
                                                   Max.-Head-Change                         Max.-Flux-Residual
  Residual-Control   Outer-Iter.   Inner-Iter.     Column Row Layer    Maximum-Head-Change  Column Row Layer    Maximum-Flux-Residual          L2-NORM 
          0                 1           2            73    1     1      -0.1700337770E-01      77    5    1        -0.1511929305E-02      0.2971698875E-01
          0                 2           2            72    1     1       0.1599773245E-02      77    5    1         0.1511841157E-03      0.2929303014E-02
          0                 3           2            72    1     1      -0.1382758859E-03      71    4    1         0.1388010343E-04      0.2802668151E-03
          0                 4           1            72    1     1       0.1078764519E-04      76    4    1        -0.1471530419E-05      0.2369201323E-04
          0                 5           1            72    1     1      -0.7451389929E-06      76    4    1         0.1163147729E-06      0.1722669764E-05

    ------------------------------------------------
       NWT REQUIRED            5 OUTER ITERATIONS 
       AND A TOTAL OF          8 INNER ITERATIONS.
    ------------------------------------------------

 NO OUTPUT CONTROL FOR STRESS PERIOD   23   TIME STEP   10
 
 WELLS WITH REDUCED PUMPING FOR STRESS PERIOD    23 TIME STEP    10
   LAY   ROW   COL         APPL.Q          ACT.Q        GW-HEAD       CELL-BOT
     1     3    50  -0.580013E+00  -0.518454E+00   0.893520E-03   0.000000E+00
     1     5    55  -0.580013E+00  -0.427759E+00   0.737306E-03   0.000000E+00
 
 
 SOLVING FOR HEAD 
                                                   Max.-Head-Change                         Max.-Flux-Residual
  Residual-Control   Outer-Iter.   Inner-Iter.     Column Row Layer    Maximum-Head-Change  Column Row Layer    Maximum-Flux-Residual          L2-NORM 
          0                 1           2            73    1     1      -0.1868562285E-01      72    3    1        -0.1507260004E-02      0.2970530057E-01
          0                 2           2            72    1     1       0.1750653906E-02      72    3    1         0.1507167240E-03      0.2929629571E-02
          0                 3           2            72    1     1      -0.1506924409E-03      76    4    1         0.1412808318E-04      0.2811459930E-03
          0                 4           1            72    1     1       0.1171707598E-04      76    4    1        -0.1526160785E-05      0.2388173406E-04
          0                 5           1            72    1     1      -0.8074560234E-06      76    4    1         0.1219555408E-06      0.1744296568E-05

    ------------------------------------------------
       NWT REQUIRED            5 OUTER ITERATIONS 
       AND A TOTAL OF          8 INNER ITERATIONS.
    ------------------------------------------------

 NO OUTPUT CONTROL FOR STRESS PERIOD   23   TIME STEP   11
 
 WELLS WITH REDUCED PUMPING FOR STRESS PERIOD    23 TIME STEP    11
   LAY   ROW   COL         APPL.Q          ACT.Q        GW-HEAD       CELL-BOT
     1     3    50  -0.580019E+00  -0.518090E+00   0.892784E-03   0.000000E+00
     1     5    55  -0.580019E+00  -0.427385E+00   0.736765E-03   0.000000E+00
 
 
 SOLVING FOR HEAD 
                                                   Max.-Head-Change                         Max.-Flux-Residual
  Residual-Control   Outer-Iter.   Inner-Iter.     Column Row Layer    Maximum-Head-Change  Column Row Layer    Maximum-Flux-Residual          L2-NORM 
          0                 1           2            73    1     1      -0.2053536761E-01      72    3    1        -0.1504928007E-02      0.2971767076E-01
          0                 2           2            72    1     1       0.1915294043E-02      72    3    1         0.1504834652E-03      0.2926434577E-02
          0                 3           2            72    7     1      -0.1641135866E-03      75    4    1         0.1446085981E-04      0.2814585087E-03
          0                 4           1            72    1     1       0.1271332075E-04      75    4    1        -0.1577582927E-05      0.2402697959E-04
          0                 5           1            71    1     1      -0.8742083447E-06      75    4    1         0.1269628331E-06      0.1763652298E-05

    ------------------------------------------------
       NWT REQUIRED            5 OUTER ITERATIONS 
       AND A TOTAL OF          8 INNER ITERATIONS.
    ------------------------------------------------

 NO OUTPUT CONTROL FOR STRESS PERIOD   23   TIME STEP   12
 
 WELLS WITH REDUCED PUMPING FOR STRESS PERIOD    23 TIME STEP    12
   LAY   ROW   COL         APPL.Q          ACT.Q        GW-HEAD       CELL-BOT
     1     3    50  -0.579978E+00  -0.517687E+00   0.892057E-03   0.000000E+00
     1     5    55  -0.579978E+00  -0.426970E+00   0.736216E-03   0.000000E+00
 
 
 SOLVING FOR HEAD 
                                                   Max.-Head-Change                         Max.-Flux-Residual
  Residual-Control   Outer-Iter.   Inner-Iter.     Column Row Layer    Maximum-Head-Change  Column Row Layer    Maximum-Flux-Residual          L2-NORM 
          0                 1           2            76    7     1      -0.2259320330E-01      76    5    1        -0.1517138068E-02      0.2973599624E-01
          0                 2           2            76    7     1       0.2097472758E-02      76    3    1         0.1517038259E-03      0.2927726689E-02
          0                 3           2            71    1     1      -0.1787745289E-03      75    4    1         0.1475734113E-04      0.2822961520E-03
          0                 4           1            71    1     1       0.1380822616E-04      75    4    1        -0.1631436245E-05      0.2421560710E-04
          0                 5           1            71    1     1      -0.9469790569E-06      75    4    1         0.1326746535E-06      0.1786133316E-05

    ------------------------------------------------
       NWT REQUIRED            5 OUTER ITERATIONS 
       AND A TOTAL OF          8 INNER ITERATIONS.
    ------------------------------------------------

 NO OUTPUT CONTROL FOR STRESS PERIOD   23   TIME STEP   13
 
 WELLS WITH REDUCED PUMPING FOR STRESS PERIOD    23 TIME STEP    13
   LAY   ROW   COL         APPL.Q          ACT.Q        GW-HEAD       CELL-BOT
     1     3    50  -0.579982E+00  -0.517249E+00   0.891181E-03   0.000000E+00
     1     5    55  -0.579982E+00  -0.426519E+00   0.735566E-03   0.000000E+00
 
 
 SOLVING FOR HEAD 
                                                   Max.-Head-Change                         Max.-Flux-Residual
  Residual-Control   Outer-Iter.   Inner-Iter.     Column Row Layer    Maximum-Head-Change  Column Row Layer    Maximum-Flux-Residual          L2-NORM 
          0                 1           2            76    7     1      -0.2482635917E-01      76    5    1        -0.1515100990E-02      0.2973679435E-01
          0                 2           2            76    7     1       0.2295236994E-02      76    3    1         0.1514971442E-03      0.2929528320E-02
          0                 3           2            71    1     1      -0.1945922860E-03      70    4    1         0.1503648747E-04      0.2832168287E-03
          0                 4           1            71    1     1       0.1496724172E-04      75    4    1        -0.1681390968E-05      0.2441130923E-04
          0                 5           1            71    1     1      -0.1023084655E-05      75    4    1         0.1380944212E-06      0.1809225665E-05
          0                 6           1            71    7     1       0.6081549146E-07      75    4    1        -0.9011214885E-08      0.1133412973E-06

    ------------------------------------------------
       NWT REQUIRED            6 OUTER ITERATIONS 
       AND A TOTAL OF          9 INNER ITERATIONS.
    ------------------------------------------------

 NO OUTPUT CONTROL FOR STRESS PERIOD   23   TIME STEP   14
 
 WELLS WITH REDUCED PUMPING FOR STRESS PERIOD    23 TIME STEP    14
   LAY   ROW   COL         APPL.Q          ACT.Q        GW-HEAD       CELL-BOT
     1     3    50  -0.580012E+00  -0.516774E+00   0.890189E-03   0.000000E+00
     1     5    55  -0.580012E+00  -0.426027E+00   0.734834E-03   0.000000E+00
 
 
 SOLVING FOR HEAD 
                                                   Max.-Head-Change                         Max.-Flux-Residual
  Residual-Control   Outer-Iter.   Inner-Iter.     Column Row Layer    Maximum-Head-Change  Column Row Layer    Maximum-Flux-Residual          L2-NORM 
          0                 1           2            75    7     1      -0.2734009128E-01      76    5    1        -0.1506916957E-02      0.2973727232E-01
          0                 2           2            75    7     1       0.2516555076E-02      76    3    1         0.1506802487E-03      0.2927919260E-02
          0                 3           2            75    7     1      -0.2121517746E-03      74    4    1         0.1528136999E-04      0.2836923633E-03
          0                 4           1            71    1     1       0.1621132394E-04      74    4    1        -0.1724854593E-05      0.2456932765E-04
          0                 5           1            71    1     1      -0.1103753173E-05      74    4    1         0.1429664689E-06      0.1829886405E-05
          0                 6           1            70    1     1       0.6544444093E-07      74    4    1        -0.9396922351E-08      0.1151243462E-06

    ------------------------------------------------
       NWT REQUIRED            6 OUTER ITERATIONS 
       AND A TOTAL OF          9 INNER ITERATIONS.
    ------------------------------------------------

 NO OUTPUT CONTROL FOR STRESS PERIOD   23   TIME STEP   15
 
 WELLS WITH REDUCED PUMPING FOR STRESS PERIOD    23 TIME STEP    15
   LAY   ROW   COL         APPL.Q          ACT.Q        GW-HEAD       CELL-BOT
     1     3    50  -0.580012E+00  -0.516258E+00   0.889171E-03   0.000000E+00
     1     5    55  -0.580012E+00  -0.425493E+00   0.734073E-03   0.000000E+00
 
 
 SOLVING FOR HEAD 
                                                   Max.-Head-Change                         Max.-Flux-Residual
  Residual-Control   Outer-Iter.   Inner-Iter.     Column Row Layer    Maximum-Head-Change  Column Row Layer    Maximum-Flux-Residual          L2-NORM 
          0                 1           2            75    7     1      -0.3009922505E-01      75    3    1        -0.1515646729E-02      0.2974624303E-01
          0                 2           2            75    7     1       0.2758512586E-02      75    3    1         0.1515531704E-03      0.2927288652E-02
          0                 3           2            75    7     1      -0.2314149593E-03      74    4    1         0.1554834494E-04      0.2843083454E-03
          0                 4           1            75    7     1       0.1755382767E-04      74    4    1        -0.1774343776E-05      0.2473823113E-04
          0                 5           1            70    1     1      -0.1190631941E-05      74    4    1         0.1484714005E-06      0.1851128642E-05
          0                 6           1            70    1     1       0.7041681654E-07      74    4    1        -0.9836032433E-08      0.1169460133E-06

    ------------------------------------------------
       NWT REQUIRED            6 OUTER ITERATIONS 
       AND A TOTAL OF          9 INNER ITERATIONS.
    ------------------------------------------------

 NO OUTPUT CONTROL FOR STRESS PERIOD   23   TIME STEP   16
 
 WELLS WITH REDUCED PUMPING FOR STRESS PERIOD    23 TIME STEP    16
   LAY   ROW   COL         APPL.Q          ACT.Q        GW-HEAD       CELL-BOT
     1     3    50  -0.580012E+00  -0.515686E+00   0.888049E-03   0.000000E+00
     1     5    55  -0.580012E+00  -0.424903E+00   0.733233E-03   0.000000E+00
 
 
 SOLVING FOR HEAD 
                                                   Max.-Head-Change                         Max.-Flux-Residual
  Residual-Control   Outer-Iter.   Inner-Iter.     Column Row Layer    Maximum-Head-Change  Column Row Layer    Maximum-Flux-Residual          L2-NORM 
          0                 1           2            75    7     1      -0.3305990299E-01      75    3    1        -0.1517029116E-02      0.2973615848E-01
          0                 2           2            75    7     1       0.3020930015E-02      75    3    1         0.1516856132E-03      0.2927082816E-02
          0                 3           2            75    7     1      -0.2523603922E-03      73    4    1         0.1568931678E-04      0.2848277986E-03
          0                 4           1            75    7     1       0.1904992270E-04      73    4    1        -0.1805808743E-05      0.2489036622E-04
          0                 5           1            70    1     1      -0.1282982303E-05      73    4    1         0.1515469901E-06      0.1870852597E-05
          0                 6           1            70    1     1       0.7561970615E-07      73    4    1        -0.1007245132E-07      0.1186866639E-06

    ------------------------------------------------
       NWT REQUIRED            6 OUTER ITERATIONS 
       AND A TOTAL OF          9 INNER ITERATIONS.
    ------------------------------------------------

 NO OUTPUT CONTROL FOR STRESS PERIOD   23   TIME STEP   17
 
 WELLS WITH REDUCED PUMPING FOR STRESS PERIOD    23 TIME STEP    17
   LAY   ROW   COL         APPL.Q          ACT.Q        GW-HEAD       CELL-BOT
     1     3    50  -0.579993E+00  -0.515003E+00   0.886747E-03   0.000000E+00
     1     5    55  -0.579993E+00  -0.424192E+00   0.732242E-03   0.000000E+00
 
 
 SOLVING FOR HEAD 
                                                   Max.-Head-Change                         Max.-Flux-Residual
  Residual-Control   Outer-Iter.   Inner-Iter.     Column Row Layer    Maximum-Head-Change  Column Row Layer    Maximum-Flux-Residual          L2-NORM 
          0                 1           2            74    4     1      -0.3647820137E-01      75    3    1        -0.1508191287E-02      0.2972171778E-01
          0                 2           2            74    7     1       0.3309371417E-02      75    3    1         0.1508051307E-03      0.2924857889E-02
          0                 3           2            74    7     1      -0.2749332687E-03      73    4    1         0.1599883134E-04      0.2851523865E-03
          0                 4           1            74    7     1       0.2064676717E-04      73    4    1        -0.1857090636E-05      0.2502796574E-04
          0                 5           1            70    1     1      -0.1380481464E-05      73    4    1         0.1568219528E-06      0.1889312126E-05
          0                 6           1            69    1     1       0.8107047226E-07      73    4    1        -0.1048197262E-07      0.1203428337E-06

    ------------------------------------------------
       NWT REQUIRED            6 OUTER ITERATIONS 
       AND A TOTAL OF          9 INNER ITERATIONS.
    ------------------------------------------------

 NO OUTPUT CONTROL FOR STRESS PERIOD   23   TIME STEP   18
 
 WELLS WITH REDUCED PUMPING FOR STRESS PERIOD    23 TIME STEP    18
   LAY   ROW   COL         APPL.Q          ACT.Q        GW-HEAD       CELL-BOT
     1     3    50  -0.579990E+00  -0.514278E+00   0.885341E-03   0.000000E+00
     1     5    55  -0.579990E+00  -0.423456E+00   0.731201E-03   0.000000E+00
 
 
 SOLVING FOR HEAD 
                                                   Max.-Head-Change                         Max.-Flux-Residual
  Residual-Control   Outer-Iter.   Inner-Iter.     Column Row Layer    Maximum-Head-Change  Column Row Layer    Maximum-Flux-Residual          L2-NORM 
          0                 1           2            74    7     1      -0.4000419233E-01      74    3    1        -0.1522159721E-02      0.2970072211E-01
          0                 2           2            74    7     1       0.3622369841E-02      74    3    1         0.1521933228E-03      0.2922710673E-02
          0                 3           2            74    7     1      -0.2995991698E-03      73    4    1         0.1616606250E-04      0.2854314008E-03
          0                 4           1            74    7     1       0.2238872292E-04      73    4    1        -0.1895697824E-05      0.2515529665E-04
          0                 5           1            74    7     1      -0.1487165125E-05      73    4    1         0.1611879554E-06      0.1906393936E-05
          0                 6           1            69    1     1       0.8689399029E-07      73    4    1        -0.1084446666E-07      0.1218997647E-06

    ------------------------------------------------
       NWT REQUIRED            6 OUTER ITERATIONS 
       AND A TOTAL OF          9 INNER ITERATIONS.
    ------------------------------------------------

 NO OUTPUT CONTROL FOR STRESS PERIOD   23   TIME STEP   19
 
 WELLS WITH REDUCED PUMPING FOR STRESS PERIOD    23 TIME STEP    19
   LAY   ROW   COL         APPL.Q          ACT.Q        GW-HEAD       CELL-BOT
     1     3    50  -0.579987E+00  -0.513515E+00   0.883864E-03   0.000000E+00
     1     5    55  -0.579987E+00  -0.422670E+00   0.730089E-03   0.000000E+00
 
 
 SOLVING FOR HEAD 
                                                   Max.-Head-Change                         Max.-Flux-Residual
  Residual-Control   Outer-Iter.   Inner-Iter.     Column Row Layer    Maximum-Head-Change  Column Row Layer    Maximum-Flux-Residual          L2-NORM 
          0                 1           2            73    7     1      -0.4396331306E-01      74    3    1        -0.1510298090E-02      0.2969167068E-01
          0                 2           2            74    7     1       0.3967654507E-02      74    3    1         0.1510122922E-03      0.2918604360E-02
          0                 3           2            74    7     1      -0.3266162929E-03      72    4    1         0.1633445441E-04      0.2852685021E-03
          0                 4           1            74    7     1       0.2426779451E-04      72    4    1        -0.1926239525E-05      0.2523436242E-04
          0                 5           1            73    7     1      -0.1603673160E-05      72    4    1         0.1660576263E-06      0.1919241059E-05
          0                 6           1            69    7     1       0.9294416898E-07      72    4    1        -0.1129586735E-07      0.1231862428E-06

    ------------------------------------------------
       NWT REQUIRED            6 OUTER ITERATIONS 
       AND A TOTAL OF          9 INNER ITERATIONS.
    ------------------------------------------------

 NO OUTPUT CONTROL FOR STRESS PERIOD   23   TIME STEP   20
 
 WELLS WITH REDUCED PUMPING FOR STRESS PERIOD    23 TIME STEP    20
   LAY   ROW   COL         APPL.Q          ACT.Q        GW-HEAD       CELL-BOT
     1     3    50  -0.580007E+00  -0.512692E+00   0.882245E-03   0.000000E+00
     1     5    55  -0.580007E+00  -0.421821E+00   0.728867E-03   0.000000E+00
 
 
 SOLVING FOR HEAD 
                                                   Max.-Head-Change                         Max.-Flux-Residual
  Residual-Control   Outer-Iter.   Inner-Iter.     Column Row Layer    Maximum-Head-Change  Column Row Layer    Maximum-Flux-Residual          L2-NORM 
          0                 1           2            73    7     1      -0.4829307256E-01      73    3    1        -0.1516081906E-02      0.2985799925E-01
          0                 2           2            73    7     1       0.4339740492E-02      73    3    1         0.1515835182E-03      0.2912230617E-02
          0                 3           2            73    7     1      -0.3555672691E-03      72    4    1         0.1648870991E-04      0.2839103283E-03
          0                 4           1            73    7     1       0.2629381074E-04      72    4    1        -0.1961572368E-05      0.2519168359E-04
          0                 5           1            73    7     1      -0.1726545609E-05      72    4    1         0.1704486206E-06      0.1922890029E-05
          0                 6           1            73    7     1       0.9923020111E-07      72    4    1        -0.1167907016E-07      0.1239549246E-06

    ------------------------------------------------
       NWT REQUIRED            6 OUTER ITERATIONS 
       AND A TOTAL OF          9 INNER ITERATIONS.
    ------------------------------------------------

 NO OUTPUT CONTROL FOR STRESS PERIOD   23   TIME STEP   21
 
 WELLS WITH REDUCED PUMPING FOR STRESS PERIOD    23 TIME STEP    21
   LAY   ROW   COL         APPL.Q          ACT.Q        GW-HEAD       CELL-BOT
     1     3    50  -0.580000E+00  -0.511777E+00   0.880499E-03   0.000000E+00
     1     5    55  -0.580000E+00  -0.420880E+00   0.727543E-03   0.000000E+00
 
 
 SOLVING FOR HEAD 
                                                   Max.-Head-Change                         Max.-Flux-Residual
  Residual-Control   Outer-Iter.   Inner-Iter.     Column Row Layer    Maximum-Head-Change  Column Row Layer    Maximum-Flux-Residual          L2-NORM 
          0                 1           2            73    7     1      -0.5306826391E-01      73    3    1        -0.1508268357E-02      0.3008991752E-01
          0                 2           2            73    7     1       0.4755444869E-02      73    3    1         0.1508045847E-03      0.2929397498E-02
          0                 3           2            73    7     1      -0.3879040344E-03      71    4    1         0.1660293317E-04      0.2854706440E-03
          0                 4           1            73    7     1       0.2851988649E-04      71    4    1        -0.1984756631E-05      0.2540686793E-04
          0                 5           1            73    7     1      -0.1858166676E-05      70    4    1         0.1699550225E-06      0.1944045945E-05
          0                 6           1            73    7     1       0.1060140100E-06      76    4    1        -0.1175549080E-07      0.1257221098E-06

    ------------------------------------------------
       NWT REQUIRED            6 OUTER ITERATIONS 
       AND A TOTAL OF          9 INNER ITERATIONS.
    ------------------------------------------------

 NO OUTPUT CONTROL FOR STRESS PERIOD   23   TIME STEP   22
 
 WELLS WITH REDUCED PUMPING FOR STRESS PERIOD    23 TIME STEP    22
   LAY   ROW   COL         APPL.Q          ACT.Q        GW-HEAD       CELL-BOT
     1     3    50  -0.579996E+00  -0.510773E+00   0.878590E-03   0.000000E+00
     1     5    55  -0.579996E+00  -0.419847E+00   0.726089E-03   0.000000E+00
 
 
 SOLVING FOR HEAD 
                                                   Max.-Head-Change                         Max.-Flux-Residual
  Residual-Control   Outer-Iter.   Inner-Iter.     Column Row Layer    Maximum-Head-Change  Column Row Layer    Maximum-Flux-Residual          L2-NORM 
          0                 1           3            77    4     1      -0.5969095622E-01      72    3    1        -0.1511066648E-02      0.3025147889E-01
          0                 2           2            77    7     1       0.5251832759E-02      72    5    1         0.1510779284E-03      0.2953862330E-02
          0                 3           2            77    7     1      -0.4260520626E-03      70    4    1         0.1658120429E-04      0.2882920805E-03
          0                 4           1            77    7     1       0.3102997362E-04      70    4    1        -0.1993699218E-05      0.2572914301E-04
          0                 5           1            73    7     1      -0.2003691883E-05      70    4    1         0.1750135379E-06      0.1970683352E-05
          0                 6           1            71    7     1       0.1136402464E-06      70    4    1        -0.1211292222E-07      0.1276805311E-06

    ------------------------------------------------
       NWT REQUIRED            6 OUTER ITERATIONS 
       AND A TOTAL OF         10 INNER ITERATIONS.
    ------------------------------------------------

 NO OUTPUT CONTROL FOR STRESS PERIOD   23   TIME STEP   23
 
 WELLS WITH REDUCED PUMPING FOR STRESS PERIOD    23 TIME STEP    23
   LAY   ROW   COL         APPL.Q          ACT.Q        GW-HEAD       CELL-BOT
     1     3    50  -0.579992E+00  -0.509678E+00   0.876518E-03   0.000000E+00
     1     5    55  -0.579992E+00  -0.418715E+00   0.724500E-03   0.000000E+00
 
 
 SOLVING FOR HEAD 
                                                   Max.-Head-Change                         Max.-Flux-Residual
  Residual-Control   Outer-Iter.   Inner-Iter.     Column Row Layer    Maximum-Head-Change  Column Row Layer    Maximum-Flux-Residual          L2-NORM 
          0                 1           3            76    4     1      -0.6666613607E-01      77    3    1        -0.1533054051E-02      0.3034821252E-01
          0                 2           2            76    7     1       0.5861421784E-02      77    3    1         0.1533018949E-03      0.2964939988E-02
          0                 3           2            76    7     1      -0.4739290517E-03      69    4    1         0.1647796327E-04      0.2895498285E-03
          0                 4           1            76    7     1       0.3435868480E-04      70    4    1        -0.2005898818E-05      0.2590944047E-04
          0                 5           1            75    7     1      -0.2187404580E-05      70    4    1         0.1779164247E-06      0.1985151855E-05
          0                 6           1            73    7     1       0.1222210235E-06      70    4    1        -0.1241969017E-07      0.1287986748E-06

    ------------------------------------------------
       NWT REQUIRED            6 OUTER ITERATIONS 
       AND A TOTAL OF         10 INNER ITERATIONS.
    ------------------------------------------------

 NO OUTPUT CONTROL FOR STRESS PERIOD   23   TIME STEP   24
 
 WELLS WITH REDUCED PUMPING FOR STRESS PERIOD    23 TIME STEP    24
   LAY   ROW   COL         APPL.Q          ACT.Q        GW-HEAD       CELL-BOT
     1     3    50  -0.579997E+00  -0.508483E+00   0.874257E-03   0.000000E+00
     1     5    55  -0.579997E+00  -0.417484E+00   0.722764E-03   0.000000E+00
 
 
 SOLVING FOR HEAD 
                                                   Max.-Head-Change                         Max.-Flux-Residual
  Residual-Control   Outer-Iter.   Inner-Iter.     Column Row Layer    Maximum-Head-Change  Column Row Layer    Maximum-Flux-Residual          L2-NORM 
          0                 1           3            74    4     1      -0.7307025894E-01      76    3    1        -0.1558580780E-02      0.3043375958E-01
          0                 2           2            75    7     1       0.6488531221E-02      76    5    1         0.1558271249E-03      0.2971166643E-02
          0                 3           2            75    7     1      -0.5234290669E-03      65    4    1         0.1605004660E-04      0.2902868869E-03
          0                 4           1            75    7     1       0.3782495854E-04      69    4    1        -0.1947514013E-05      0.2604238614E-04
          0                 5           1            75    7     1      -0.2392558218E-05      76    4    1         0.1769273972E-06      0.1994488426E-05
          0                 6           1            73    7     1       0.1327210903E-06      76    4    1        -0.1274105799E-07      0.1295157839E-06

    ------------------------------------------------
       NWT REQUIRED            6 OUTER ITERATIONS 
       AND A TOTAL OF         10 INNER ITERATIONS.
    ------------------------------------------------

 NO OUTPUT CONTROL FOR STRESS PERIOD   23   TIME STEP   25
 
 WELLS WITH REDUCED PUMPING FOR STRESS PERIOD    23 TIME STEP    25
   LAY   ROW   COL         APPL.Q          ACT.Q        GW-HEAD       CELL-BOT
     1     3    50  -0.580006E+00  -0.507130E+00   0.871709E-03   0.000000E+00
     1     5    55  -0.580006E+00  -0.416077E+00   0.720781E-03   0.000000E+00
 
 
 SOLVING FOR HEAD 
                                                   Max.-Head-Change                         Max.-Flux-Residual
  Residual-Control   Outer-Iter.   Inner-Iter.     Column Row Layer    Maximum-Head-Change  Column Row Layer    Maximum-Flux-Residual          L2-NORM 
          0                 1           3            74    7     1      -0.8024656906E-01      74    3    1        -0.1562078233E-02      0.3047341873E-01
          0                 2           2            74    7     1       0.7143366024E-02      74    5    1         0.1561761148E-03      0.2975930715E-02
          0                 3           2            74    7     1      -0.5748208013E-03      64    4    1         0.1552564081E-04      0.2907771513E-03
          0                 4           1            74    7     1       0.4137752003E-04      75    4    1        -0.1951132369E-05      0.2614061096E-04
          0                 5           1            73    7     1      -0.2601608037E-05      74    4    1         0.1784672072E-06      0.1998162402E-05
          0                 6           1            71    7     1       0.1436017502E-06      74    4    1        -0.1290099583E-07      0.1297445409E-06

    ------------------------------------------------
       NWT REQUIRED            6 OUTER ITERATIONS 
       AND A TOTAL OF         10 INNER ITERATIONS.
    ------------------------------------------------

 NO OUTPUT CONTROL FOR STRESS PERIOD   23   TIME STEP   26
 
 WELLS WITH REDUCED PUMPING FOR STRESS PERIOD    23 TIME STEP    26
   LAY   ROW   COL         APPL.Q          ACT.Q        GW-HEAD       CELL-BOT
     1     3    50  -0.580003E+00  -0.505513E+00   0.868710E-03   0.000000E+00
     1     5    55  -0.580003E+00  -0.414381E+00   0.718412E-03   0.000000E+00
 
 
 SOLVING FOR HEAD 
                                                   Max.-Head-Change                         Max.-Flux-Residual
  Residual-Control   Outer-Iter.   Inner-Iter.     Column Row Layer    Maximum-Head-Change  Column Row Layer    Maximum-Flux-Residual          L2-NORM 
          0                 1           3            73    1     1      -0.8820277522E-01      73    3    1        -0.1558826447E-02      0.3047459317E-01
          0                 2           2            74    7     1       0.7834997170E-02      73    3    1         0.1558479332E-03      0.2977834266E-02
          0                 3           2            74    7     1      -0.6286645043E-03      68    4    1         0.1628627398E-04      0.2911255310E-03
          0                 4           1            73    7     1       0.4506855916E-04      68    4    1        -0.2044630248E-05      0.2622892636E-04
          0                 5           1            71    7     1      -0.2803992712E-05      68    4    1         0.1852636853E-06      0.1998155701E-05
          0                 6           1            71    7     1       0.1542400971E-06      74    4    1        -0.1323665444E-07      0.1296162510E-06

    ------------------------------------------------
       NWT REQUIRED            6 OUTER ITERATIONS 
       AND A TOTAL OF         10 INNER ITERATIONS.
    ------------------------------------------------

 NO OUTPUT CONTROL FOR STRESS PERIOD   23   TIME STEP   27
 
 WELLS WITH REDUCED PUMPING FOR STRESS PERIOD    23 TIME STEP    27
   LAY   ROW   COL         APPL.Q          ACT.Q        GW-HEAD       CELL-BOT
     1     3    50  -0.580001E+00  -0.503915E+00   0.865770E-03   0.000000E+00
     1     5    55  -0.580001E+00  -0.412754E+00   0.716144E-03   0.000000E+00
 
 
 SOLVING FOR HEAD 
                                                   Max.-Head-Change                         Max.-Flux-Residual
  Residual-Control   Outer-Iter.   Inner-Iter.     Column Row Layer    Maximum-Head-Change  Column Row Layer    Maximum-Flux-Residual          L2-NORM 
          0                 1           3            73    7     1      -0.9678078777E-01      72    3    1        -0.1555195954E-02      0.3045271432E-01
          0                 2           2            74    7     1       0.8588109918E-02      72    5    1         0.1554769170E-03      0.2976338400E-02
          0                 3           2            74    7     1      -0.6874528428E-03      67    4    1         0.1653515081E-04      0.2910335152E-03
          0                 4           1            74    7     1       0.4904753428E-04      67    4    1        -0.2060064477E-05      0.2626865841E-04
          0                 5           1            71    7     1      -0.3019952806E-05      72    4    1         0.1834515473E-06      0.1991535029E-05
          0                 6           1            71    7     1       0.1645816015E-06      72    4    1        -0.1331119570E-07      0.1289903626E-06

    ------------------------------------------------
       NWT REQUIRED            6 OUTER ITERATIONS 
       AND A TOTAL OF         10 INNER ITERATIONS.
    ------------------------------------------------

 NO OUTPUT CONTROL FOR STRESS PERIOD   23   TIME STEP   28
 
 WELLS WITH REDUCED PUMPING FOR STRESS PERIOD    23 TIME STEP    28
   LAY   ROW   COL         APPL.Q          ACT.Q        GW-HEAD       CELL-BOT
     1     3    50  -0.580001E+00  -0.502265E+00   0.862757E-03   0.000000E+00
     1     5    55  -0.580001E+00  -0.411048E+00   0.713771E-03   0.000000E+00
 
 
 SOLVING FOR HEAD 
                                                   Max.-Head-Change                         Max.-Flux-Residual
  Residual-Control   Outer-Iter.   Inner-Iter.     Column Row Layer    Maximum-Head-Change  Column Row Layer    Maximum-Flux-Residual          L2-NORM 
          0                 1           3            73    7     1      -0.1061345698E+00      74    3    1        -0.1549177705E-02      0.3040286090E-01
          0                 2           2            73    7     1       0.9403152509E-02      74    5    1         0.1548775835E-03      0.2971803897E-02
          0                 3           2            73    7     1      -0.7505541430E-03      66    4    1         0.1631754117E-04      0.2906039998E-03
          0                 4           1            73    1     1       0.5333678100E-04      66    4    1        -0.2037912076E-05      0.2627177315E-04
          0                 5           1            71    7     1      -0.3242718222E-05      72    4    1         0.1858537022E-06      0.1978663980E-05
          0                 6           1            69    7     1       0.1764987231E-06      72    4    1        -0.1351982348E-07      0.1278701771E-06

    ------------------------------------------------
       NWT REQUIRED            6 OUTER ITERATIONS 
       AND A TOTAL OF         10 INNER ITERATIONS.
    ------------------------------------------------

 NO OUTPUT CONTROL FOR STRESS PERIOD   23   TIME STEP   29
 
 WELLS WITH REDUCED PUMPING FOR STRESS PERIOD    23 TIME STEP    29
   LAY   ROW   COL         APPL.Q          ACT.Q        GW-HEAD       CELL-BOT
     1     3    50  -0.579996E+00  -0.500450E+00   0.859478E-03   0.000000E+00
     1     5    55  -0.579996E+00  -0.409181E+00   0.711185E-03   0.000000E+00
 
 
 SOLVING FOR HEAD 
                                                   Max.-Head-Change                         Max.-Flux-Residual
  Residual-Control   Outer-Iter.   Inner-Iter.     Column Row Layer    Maximum-Head-Change  Column Row Layer    Maximum-Flux-Residual          L2-NORM 
          0                 1           3            73    7     1      -0.1162565320E+00      73    3    1        -0.1545072343E-02      0.3032491819E-01
          0                 2           3            73    7     1       0.1028504596E-01      73    3    1         0.1544614341E-03      0.2964137860E-02
          0                 3           2            73    7     1      -0.8189968568E-03      65    4    1         0.1598789795E-04      0.2897184829E-03
          0                 4           1            73    1     1       0.5792990918E-04      65    4    1        -0.2001108121E-05      0.2621109950E-04
          0                 5           1            69    7     1      -0.3469499234E-05      70    4    1         0.1845479574E-06      0.1955380473E-05
          0                 6           1            69    7     1       0.1872234717E-06      70    4    1        -0.1346330336E-07      0.1259683592E-06

    ------------------------------------------------
       NWT REQUIRED            6 OUTER ITERATIONS 
       AND A TOTAL OF         11 INNER ITERATIONS.
    ------------------------------------------------

 NO OUTPUT CONTROL FOR STRESS PERIOD   23   TIME STEP   30
 
 WELLS WITH REDUCED PUMPING FOR STRESS PERIOD    23 TIME STEP    30
   LAY   ROW   COL         APPL.Q          ACT.Q        GW-HEAD       CELL-BOT
     1     3    50  -0.579997E+00  -0.498507E+00   0.855989E-03   0.000000E+00
     1     5    55  -0.579997E+00  -0.407169E+00   0.708401E-03   0.000000E+00
 



 STREAM LISTING     PERIOD     23   STEP       30

 LAYER ROW COL. STREAM  RCH.   FLOW INTO    STREAM     FLOW OUT OF   OVRLND.    DIRECT     STREAM      STREAM      STREAM     STREAM  STREAMBED   FLOW TO   CHNG. UNSAT. 
                SEG.NO.  NO.   STRM. RCH.    LOSS       STRM. RCH.   RUNOFF     PRECIP       ET         HEAD        DEPTH      WIDTH  CONDCTNC.   WAT. TAB.

   1    4    1     1     1    4.2960E+00  1.5291E-03   4.2945E+00  0.000E+00  0.000E+00  0.000E+00  1.41409E+02  1.559E+00  3.678E+00  7.425E-04  1.702E-03 -1.725E-04
   1    4    2     1     2    4.2945E+00  1.5287E-03   4.2929E+00  0.000E+00  0.000E+00  0.000E+00  1.41109E+02  1.559E+00  3.678E+00  7.424E-04  1.699E-03 -1.706E-04
   1    4    3     1     3    4.2929E+00  1.5283E-03   4.2914E+00  0.000E+00  0.000E+00  0.000E+00  1.40809E+02  1.559E+00  3.678E+00  7.423E-04  1.691E-03 -1.623E-04
   1    4    4     1     4    4.2914E+00  1.5279E-03   4.2899E+00  0.000E+00  0.000E+00  0.000E+00  1.40509E+02  1.559E+00  3.677E+00  7.422E-04  1.684E-03 -1.560E-04
   1    4    5     1     5    4.2899E+00  1.5275E-03   4.2884E+00  0.000E+00  0.000E+00  0.000E+00  1.40208E+02  1.558E+00  3.677E+00  7.421E-04  1.679E-03 -1.519E-04
   1    4    6     1     6    4.2884E+00  1.5271E-03   4.2868E+00  0.000E+00  0.000E+00  0.000E+00  1.39908E+02  1.558E+00  3.677E+00  7.420E-04  1.677E-03 -1.500E-04
   1    4    7     1     7    4.2868E+00  1.5267E-03   4.2853E+00  0.000E+00  0.000E+00  0.000E+00  1.39608E+02  1.558E+00  3.676E+00  7.419E-04  1.677E-03 -1.502E-04
   1    4    8     1     8    4.2853E+00  1.5263E-03   4.2838E+00  0.000E+00  0.000E+00  0.000E+00  1.39307E+02  1.557E+00  3.676E+00  7.418E-04  1.679E-03 -1.525E-04
   1    4    9     1     9    4.2838E+00  1.5259E-03   4.2823E+00  0.000E+00  0.000E+00  0.000E+00  1.39007E+02  1.557E+00  3.675E+00  7.418E-04  1.683E-03 -1.571E-04
   1    4   10     1    10    4.2823E+00  1.5255E-03   4.2807E+00  0.000E+00  0.000E+00  0.000E+00  1.38707E+02  1.557E+00  3.675E+00  7.417E-04  1.689E-03 -1.638E-04
   1    4   11     1    11    4.2807E+00  1.5250E-03   4.2792E+00  0.000E+00  0.000E+00  0.000E+00  1.38407E+02  1.557E+00  3.675E+00  7.416E-04  1.693E-03 -1.682E-04
   1    4   12     1    12    4.2792E+00  1.5246E-03   4.2777E+00  0.000E+00  0.000E+00  0.000E+00  1.38106E+02  1.556E+00  3.674E+00  7.415E-04  1.692E-03 -1.676E-04
   1    4   13     1    13    4.2777E+00  1.5242E-03   4.2762E+00  0.000E+00  0.000E+00  0.000E+00  1.37806E+02  1.556E+00  3.674E+00  7.414E-04  1.691E-03 -1.671E-04
   1    4   14     1    14    4.2762E+00  1.5238E-03   4.2746E+00  0.000E+00  0.000E+00  0.000E+00  1.37506E+02  1.556E+00  3.674E+00  7.413E-04  1.690E-03 -1.665E-04
   1    4   15     1    15    4.2746E+00  1.5234E-03   4.2731E+00  0.000E+00  0.000E+00  0.000E+00  1.37205E+02  1.555E+00  3.673E+00  7.412E-04  1.689E-03 -1.659E-04
   1    4   16     1    16    4.2731E+00  1.5230E-03   4.2716E+00  0.000E+00  0.000E+00  0.000E+00  1.36905E+02  1.555E+00  3.673E+00  7.411E-04  1.688E-03 -1.653E-04
   1    4   17     1    17    4.2716E+00  1.5226E-03   4.2701E+00  0.000E+00  0.000E+00  0.000E+00  1.36605E+02  1.555E+00  3.673E+00  7.410E-04  1.687E-03 -1.647E-04
   1    4   18     1    18    4.2701E+00  1.5222E-03   4.2685E+00  0.000E+00  0.000E+00  0.000E+00  1.36305E+02  1.555E+00  3.672E+00  7.409E-04  1.686E-03 -1.641E-04
   1    4   19     1    19    4.2685E+00  1.5218E-03   4.2670E+00  0.000E+00  0.000E+00  0.000E+00  1.36004E+02  1.554E+00  3.672E+00  7.408E-04  1.685E-03 -1.635E-04
   1    4   20     1    20    4.2670E+00  1.5214E-03   4.2655E+00  0.000E+00  0.000E+00  0.000E+00  1.35704E+02  1.554E+00  3.672E+00  7.407E-04  1.684E-03 -1.629E-04
   1    4   21     1    21    4.2655E+00  1.5210E-03   4.2640E+00  0.000E+00  0.000E+00  0.000E+00  1.35404E+02  1.554E+00  3.671E+00  7.406E-04  1.683E-03 -1.623E-04
   1    4   22     1    22    4.2640E+00  1.5206E-03   4.2625E+00  0.000E+00  0.000E+00  0.000E+00  1.35103E+02  1.553E+00  3.671E+00  7.405E-04  1.682E-03 -1.617E-04
   1    4   23     1    23    4.2625E+00  1.5202E-03   4.2609E+00  0.000E+00  0.000E+00  0.000E+00  1.34803E+02  1.553E+00  3.671E+00  7.404E-04  1.681E-03 -1.612E-04
   1    4   24     1    24    4.2609E+00  1.5198E-03   4.2594E+00  0.000E+00  0.000E+00  0.000E+00  1.34503E+02  1.553E+00  3.670E+00  7.403E-04  1.680E-03 -1.606E-04
   1    4   25     1    25    4.2594E+00  1.5194E-03   4.2579E+00  0.000E+00  0.000E+00  0.000E+00  1.34202E+02  1.553E+00  3.670E+00  7.402E-04  1.680E-03 -1.602E-04
   1    4   26     1    26    4.2579E+00  1.5190E-03   4.2564E+00  0.000E+00  0.000E+00  0.000E+00  1.33902E+02  1.552E+00  3.670E+00  7.402E-04  1.679E-03 -1.597E-04
   1    4   27     1    27    4.2564E+00  1.5186E-03   4.2549E+00  0.000E+00  0.000E+00  0.000E+00  1.33602E+02  1.552E+00  3.669E+00  7.401E-04  1.678E-03 -1.593E-04
   1    4   28     1    28    4.2549E+00  1.5181E-03   4.2533E+00  0.000E+00  0.000E+00  0.000E+00  1.33302E+02  1.552E+00  3.669E+00  7.400E-04  1.677E-03 -1.589E-04
   1    4   29     1    29    4.2533E+00  1.5177E-03   4.2518E+00  0.000E+00  0.000E+00  0.000E+00  1.33001E+02  1.551E+00  3.669E+00  7.399E-04  1.676E-03 -1.587E-04
   1    4   30     1    30    4.2518E+00  1.5173E-03   4.2503E+00  0.000E+00  0.000E+00  0.000E+00  1.32701E+02  1.551E+00  3.668E+00  7.398E-04  1.676E-03 -1.584E-04
   1    4   31     1    31    4.2503E+00  1.5169E-03   4.2488E+00  0.000E+00  0.000E+00  0.000E+00  1.32401E+02  1.551E+00  3.668E+00  7.397E-04  1.675E-03 -1.583E-04
   1    4   32     1    32    4.2488E+00  1.5165E-03   4.2473E+00  0.000E+00  0.000E+00  0.000E+00  1.32100E+02  1.550E+00  3.668E+00  7.396E-04  1.675E-03 -1.582E-04
   1    4   33     1    33    4.2473E+00  1.5161E-03   4.2458E+00  0.000E+00  0.000E+00  0.000E+00  1.31800E+02  1.550E+00  3.667E+00  7.395E-04  1.674E-03 -1.582E-04
   1    4   34     1    34    4.2458E+00  1.5157E-03   4.2442E+00  0.000E+00  0.000E+00  0.000E+00  1.31500E+02  1.550E+00  3.667E+00  7.394E-04  1.674E-03 -1.582E-04
   1    4   35     1    35    4.2442E+00  1.5153E-03   4.2427E+00  0.000E+00  0.000E+00  0.000E+00  1.31200E+02  1.550E+00  3.667E+00  7.393E-04  1.711E-03 -1.956E-04
   1    4   36     1    36    4.2427E+00  1.5149E-03   4.2412E+00  0.000E+00  0.000E+00  0.000E+00  1.30899E+02  1.549E+00  3.666E+00  7.392E-04  1.751E-03 -2.356E-04
   1    4   37     1    37    4.2412E+00  1.5145E-03   4.2397E+00  0.000E+00  0.000E+00  0.000E+00  1.30599E+02  1.549E+00  3.666E+00  7.391E-04  1.750E-03 -2.359E-04
   1    4   38     1    38    4.2397E+00  1.5141E-03   4.2382E+00  0.000E+00  0.000E+00  0.000E+00  1.30299E+02  1.549E+00  3.665E+00  7.390E-04  1.798E-03 -2.836E-04
   1    4   39     1    39    4.2382E+00  1.5137E-03   4.2367E+00  0.000E+00  0.000E+00  0.000E+00  1.29998E+02  1.548E+00  3.665E+00  7.389E-04  1.946E-03 -4.320E-04
   1    4   40     1    40    4.2367E+00  1.5133E-03   4.2352E+00  0.000E+00  0.000E+00  0.000E+00  1.29698E+02  1.548E+00  3.665E+00  7.388E-04  2.034E-03 -5.206E-04
   1    4   41     1    41    4.2352E+00  1.5129E-03   4.2336E+00  0.000E+00  0.000E+00  0.000E+00  1.29398E+02  1.548E+00  3.664E+00  7.387E-04  2.036E-03 -5.231E-04
   1    4   42     1    42    4.2336E+00  1.5125E-03   4.2321E+00  0.000E+00  0.000E+00  0.000E+00  1.29098E+02  1.548E+00  3.664E+00  7.387E-04  2.038E-03 -5.257E-04
   1    4   43     1    43    4.2321E+00  1.5121E-03   4.2306E+00  0.000E+00  0.000E+00  0.000E+00  1.28797E+02  1.547E+00  3.664E+00  7.386E-04  2.041E-03 -5.286E-04
   1    4   44     1    44    4.2306E+00  1.5117E-03   4.2291E+00  0.000E+00  0.000E+00  0.000E+00  1.28497E+02  1.547E+00  3.663E+00  7.385E-04  2.079E-03 -5.671E-04
   1    4   45     1    45    4.2291E+00  1.5113E-03   4.2276E+00  0.000E+00  0.000E+00  0.000E+00  1.28197E+02  1.547E+00  3.663E+00  7.384E-04  2.137E-03 -6.261E-04
   1    4   46     1    46    4.2276E+00  1.5109E-03   4.2261E+00  0.000E+00  0.000E+00  0.000E+00  1.27896E+02  1.546E+00  3.663E+00  7.383E-04  2.148E-03 -6.371E-04
   1    4   47     1    47    4.2261E+00  1.5105E-03   4.2246E+00  0.000E+00  0.000E+00  0.000E+00  1.27596E+02  1.546E+00  3.662E+00  7.382E-04  2.213E-03 -7.022E-04
   1    4   48     1    48    4.2246E+00  1.5101E-03   4.2231E+00  0.000E+00  0.000E+00  0.000E+00  1.27296E+02  1.546E+00  3.662E+00  7.381E-04  2.353E-03 -8.434E-04
   1    4   49     1    49    4.2231E+00  1.5097E-03   4.2216E+00  0.000E+00  0.000E+00  0.000E+00  1.26996E+02  1.546E+00  3.662E+00  7.380E-04  2.758E-03 -1.249E-03
   1    4   50     1    50    4.2216E+00  1.5093E-03   4.2200E+00  0.000E+00  0.000E+00  0.000E+00  1.26695E+02  1.545E+00  3.661E+00  7.379E-04  2.825E-03 -1.316E-03
   1    4   51     1    51    4.2200E+00  1.5089E-03   4.2185E+00  0.000E+00  0.000E+00  0.000E+00  1.26395E+02  1.545E+00  3.661E+00  7.378E-04  2.808E-03 -1.299E-03
   1    4   52     1    52    4.2185E+00  1.5085E-03   4.2170E+00  0.000E+00  0.000E+00  0.000E+00  1.26095E+02  1.545E+00  3.661E+00  7.377E-04  2.799E-03 -1.290E-03
   1    4   53     1    53    4.2170E+00  1.5081E-03   4.2155E+00  0.000E+00  0.000E+00  0.000E+00  1.25794E+02  1.544E+00  3.660E+00  7.376E-04  2.796E-03 -1.288E-03
   1    4   54     1    54    4.2155E+00  1.5077E-03   4.2140E+00  0.000E+00  0.000E+00  0.000E+00  1.25494E+02  1.544E+00  3.660E+00  7.375E-04  2.800E-03 -1.292E-03
   1    4   55     1    55    4.2140E+00  1.5072E-03   4.2125E+00  0.000E+00  0.000E+00  0.000E+00  1.25194E+02  1.544E+00  3.660E+00  7.374E-04  2.813E-03 -1.306E-03
   1    4   56     1    56    4.2125E+00  1.5068E-03   4.2110E+00  0.000E+00  0.000E+00  0.000E+00  1.24894E+02  1.544E+00  3.659E+00  7.373E-04  2.742E-03 -1.235E-03
   1    4   57     1    57    4.2110E+00  1.5064E-03   4.2095E+00  0.000E+00  0.000E+00  0.000E+00  1.24593E+02  1.543E+00  3.659E+00  7.373E-04  2.345E-03 -8.381E-04
   1    4   58     1    58    4.2095E+00  1.5060E-03   4.2080E+00  0.000E+00  0.000E+00  0.000E+00  1.24293E+02  1.543E+00  3.659E+00  7.372E-04  2.200E-03 -6.942E-04
   1    4   59     1    59    4.2080E+00  1.5056E-03   4.2065E+00  0.000E+00  0.000E+00  0.000E+00  1.23993E+02  1.543E+00  3.658E+00  7.371E-04  2.123E-03 -6.173E-04
   1    4   60     1    60    4.2065E+00  1.5052E-03   4.2050E+00  0.000E+00  0.000E+00  0.000E+00  1.23692E+02  1.542E+00  3.658E+00  7.370E-04  2.103E-03 -5.977E-04
   1    4   61     1    61    4.2050E+00  1.5048E-03   4.2035E+00  0.000E+00  0.000E+00  0.000E+00  1.23392E+02  1.542E+00  3.658E+00  7.369E-04  2.096E-03 -5.910E-04
   1    4   62     1    62    4.2035E+00  1.5044E-03   4.2020E+00  0.000E+00  0.000E+00  0.000E+00  1.23092E+02  1.542E+00  3.657E+00  7.368E-04  2.029E-03 -5.241E-04
   1    4   63     1    63    4.2020E+00  1.5040E-03   4.2005E+00  0.000E+00  0.000E+00  0.000E+00  1.22792E+02  1.542E+00  3.657E+00  7.367E-04  1.999E-03 -4.950E-04
   1    4   64     1    64    4.2005E+00  1.5036E-03   4.1990E+00  0.000E+00  0.000E+00  0.000E+00  1.22491E+02  1.541E+00  3.657E+00  7.366E-04  1.994E-03 -4.908E-04
   1    4   65     1    65    4.1990E+00  1.5032E-03   4.1975E+00  0.000E+00  0.000E+00  0.000E+00  1.22191E+02  1.541E+00  3.656E+00  7.365E-04  1.990E-03 -4.869E-04
   1    4   66     1    66    4.1975E+00  1.5028E-03   4.1959E+00  0.000E+00  0.000E+00  0.000E+00  1.21891E+02  1.541E+00  3.656E+00  7.364E-04  1.917E-03 -4.143E-04
   1    4   67     1    67    4.1959E+00  1.5024E-03   4.1944E+00  0.000E+00  0.000E+00  0.000E+00  1.21590E+02  1.540E+00  3.656E+00  7.363E-04  1.775E-03 -2.729E-04
   1    4   68     1    68    4.1944E+00  1.5020E-03   4.1929E+00  0.000E+00  0.000E+00  0.000E+00  1.21290E+02  1.540E+00  3.655E+00  7.362E-04  1.704E-03 -2.022E-04
   1    4   69     1    69    4.1929E+00  1.5016E-03   4.1914E+00  0.000E+00  0.000E+00  0.000E+00  1.20990E+02  1.540E+00  3.655E+00  7.361E-04  1.703E-03 -2.010E-04
   1    4   70     1    70    4.1914E+00  1.5012E-03   4.1899E+00  0.000E+00  0.000E+00  0.000E+00  1.20690E+02  1.540E+00  3.655E+00  7.360E-04  1.701E-03 -1.999E-04
   1    4   71     1    71    4.1899E+00  1.5008E-03   4.1884E+00  0.000E+00  0.000E+00  0.000E+00  1.20389E+02  1.539E+00  3.654E+00  7.359E-04  1.700E-03 -1.989E-04
   1    4   72     1    72    4.1884E+00  1.5004E-03   4.1869E+00  0.000E+00  0.000E+00  0.000E+00  1.20089E+02  1.539E+00  3.654E+00  7.359E-04  1.659E-03 -1.583E-04
   1    4   73     1    73    4.1869E+00  1.5000E-03   4.1854E+00  0.000E+00  0.000E+00  0.000E+00  1.19789E+02  1.539E+00  3.653E+00  7.358E-04  1.629E-03 -1.290E-04
   1    4   74     1    74    4.1854E+00  1.4996E-03   4.1839E+00  0.000E+00  0.000E+00  0.000E+00  1.19488E+02  1.538E+00  3.653E+00  7.357E-04  1.629E-03 -1.291E-04
   1    4   75     1    75    4.1839E+00  1.4992E-03   4.1824E+00  0.000E+00  0.000E+00  0.000E+00  1.19188E+02  1.538E+00  3.653E+00  7.356E-04  1.629E-03 -1.294E-04
   1    4   76     1    76    4.1824E+00  1.4988E-03   4.1809E+00  0.000E+00  0.000E+00  0.000E+00  1.18888E+02  1.538E+00  3.652E+00  7.355E-04  1.629E-03 -1.298E-04
   1    4   77     1    77    4.1809E+00  1.4984E-03   4.1794E+00  0.000E+00  0.000E+00  0.000E+00  1.18588E+02  1.538E+00  3.652E+00  7.354E-04  1.629E-03 -1.304E-04
   1    4   78     1    78    4.1794E+00  1.4980E-03   4.1779E+00  0.000E+00  0.000E+00  0.000E+00  1.18287E+02  1.537E+00  3.652E+00  7.353E-04  1.629E-03 -1.312E-04
   1    4   79     1    79    4.1779E+00  1.4976E-03   4.1764E+00  0.000E+00  0.000E+00  0.000E+00  1.17987E+02  1.537E+00  3.651E+00  7.352E-04  1.630E-03 -1.322E-04
   1    4   80     1    80    4.1764E+00  1.4972E-03   4.1750E+00  0.000E+00  0.000E+00  0.000E+00  1.17687E+02  1.537E+00  3.651E+00  7.351E-04  1.631E-03 -1.335E-04
   1    4   81     1    81    4.1750E+00  1.4968E-03   4.1735E+00  0.000E+00  0.000E+00  0.000E+00  1.17386E+02  1.536E+00  3.651E+00  7.350E-04  1.632E-03 -1.351E-04
   1    4   82     1    82    4.1735E+00  1.4964E-03   4.1720E+00  0.000E+00  0.000E+00  0.000E+00  1.17086E+02  1.536E+00  3.650E+00  7.349E-04  1.633E-03 -1.369E-04
   1    4   83     1    83    4.1720E+00  1.4960E-03   4.1705E+00  0.000E+00  0.000E+00  0.000E+00  1.16786E+02  1.536E+00  3.650E+00  7.348E-04  1.635E-03 -1.390E-04
   1    4   84     1    84    4.1705E+00  1.4956E-03   4.1690E+00  0.000E+00  0.000E+00  0.000E+00  1.16486E+02  1.536E+00  3.650E+00  7.347E-04  1.637E-03 -1.414E-04
   1    4   85     1    85    4.1690E+00  1.4952E-03   4.1675E+00  0.000E+00  0.000E+00  0.000E+00  1.16185E+02  1.535E+00  3.649E+00  7.346E-04  1.639E-03 -1.442E-04
   1    4   86     1    86    4.1675E+00  1.4948E-03   4.1660E+00  0.000E+00  0.000E+00  0.000E+00  1.15885E+02  1.535E+00  3.649E+00  7.345E-04  1.642E-03 -1.474E-04
   1    4   87     1    87    4.1660E+00  1.4944E-03   4.1645E+00  0.000E+00  0.000E+00  0.000E+00  1.15585E+02  1.535E+00  3.649E+00  7.345E-04  1.645E-03 -1.510E-04
   1    4   88     1    88    4.1645E+00  1.4940E-03   4.1630E+00  0.000E+00  0.000E+00  0.000E+00  1.15284E+02  1.534E+00  3.648E+00  7.344E-04  1.649E-03 -1.551E-04
   1    4   89     1    89    4.1630E+00  1.4936E-03   4.1615E+00  0.000E+00  0.000E+00  0.000E+00  1.14984E+02  1.534E+00  3.648E+00  7.343E-04  1.653E-03 -1.596E-04
   1    4   90     1    90    4.1615E+00  1.4932E-03   4.1600E+00  0.000E+00  0.000E+00  0.000E+00  1.14684E+02  1.534E+00  3.648E+00  7.342E-04  1.658E-03 -1.646E-04
   1    4   91     1    91    4.1600E+00  1.4928E-03   4.1585E+00  0.000E+00  0.000E+00  0.000E+00  1.14384E+02  1.534E+00  3.647E+00  7.341E-04  1.663E-03 -1.702E-04
   1    4   92     1    92    4.1585E+00  1.4924E-03   4.1570E+00  0.000E+00  0.000E+00  0.000E+00  1.14083E+02  1.533E+00  3.647E+00  7.340E-04  1.669E-03 -1.764E-04
   1    4   93     1    93    4.1570E+00  1.4920E-03   4.1555E+00  0.000E+00  0.000E+00  0.000E+00  1.13783E+02  1.533E+00  3.647E+00  7.339E-04  1.675E-03 -1.831E-04
   1    4   94     1    94    4.1555E+00  1.4916E-03   4.1540E+00  0.000E+00  0.000E+00  0.000E+00  1.13483E+02  1.533E+00  3.646E+00  7.338E-04  1.682E-03 -1.904E-04
   1    4   95     1    95    4.1540E+00  1.4912E-03   4.1525E+00  0.000E+00  0.000E+00  0.000E+00  1.13182E+02  1.532E+00  3.646E+00  7.337E-04  1.689E-03 -1.982E-04
   1    4   96     1    96    4.1525E+00  1.4908E-03   4.1511E+00  0.000E+00  0.000E+00  0.000E+00  1.12882E+02  1.532E+00  3.646E+00  7.336E-04  1.697E-03 -2.066E-04
   1    4   97     1    97    4.1511E+00  1.4904E-03   4.1496E+00  0.000E+00  0.000E+00  0.000E+00  1.12582E+02  1.532E+00  3.645E+00  7.335E-04  1.706E-03 -2.155E-04
   1    4   98     1    98    4.1496E+00  1.4900E-03   4.1481E+00  0.000E+00  0.000E+00  0.000E+00  1.12282E+02  1.532E+00  3.645E+00  7.334E-04  1.715E-03 -2.247E-04
   1    4   99     1    99    4.1481E+00  1.4896E-03   4.1466E+00  0.000E+00  0.000E+00  0.000E+00  1.11981E+02  1.531E+00  3.645E+00  7.333E-04  1.724E-03 -2.343E-04
   1    4  100     1   100    4.1466E+00  1.4892E-03   4.1451E+00  0.000E+00  0.000E+00  0.000E+00  1.11681E+02  1.531E+00  3.644E+00  7.332E-04  1.733E-03 -2.441E-04



1
  VOLUMETRIC BUDGET FOR UNSATURATED ZONE BENEATH STREAMS AT END OF TIME STEP    30 STRESS PERIOD  23
  ------------------------------------------------------------------------------------------------

    CUMULATIVE VOLUMES             L**3    RATES FOR THIS TIME STEP         L**3/T
    ------------------                     ------------------------


          STREAM LOSS =     27053892.0000            STREAM LOSS =            0.1509
    CHANGE IN STORAGE =      1483179.2500      CHANGE IN STORAGE =       -3.4153E-02
       RECHARGE TO GW =     25577720.0000         RECHARGE TO GW =            0.1851

             TOTAL IN =     27053892.0000               TOTAL IN =            0.1851

            TOTAL OUT =     27060900.0000              TOTAL OUT =            0.1851

             IN - OUT =        -7008.0000               IN - OUT =        3.4273E-07

  PERCENT DISCREPANCY =           -0.01      PERCENT DISCREPANCY =             0.00



1
  VOLUMETRIC BUDGET FOR ENTIRE MODEL AT END OF TIME STEP   30, STRESS PERIOD  23
  ------------------------------------------------------------------------------

     CUMULATIVE VOLUMES      L**3       RATES FOR THIS TIME STEP      L**3/T
     ------------------                 ------------------------

           IN:                                      IN:
           ---                                      ---
             STORAGE     =    87460176.0000               STORAGE     =           0.7625
       CONSTANT HEAD     =           0.0000         CONSTANT HEAD     =           0.0000
               WELLS     =           0.0000                 WELLS     =           0.0000
     HEAD DEP BOUNDS     =           0.0000       HEAD DEP BOUNDS     =           0.0000
      STREAM LEAKAGE     =    25577524.0000        STREAM LEAKAGE     =           0.1851

                TOTAL IN =   113037696.0000                  TOTAL IN =           0.9476

          OUT:                                     OUT:
          ----                                     ----
             STORAGE     =     3026919.5000               STORAGE     =           0.0000
       CONSTANT HEAD     =           0.0000         CONSTANT HEAD     =           0.0000
               WELLS     =    93779352.0000                 WELLS     =           0.9057
     HEAD DEP BOUNDS     =    16231475.0000       HEAD DEP BOUNDS     =       4.1880E-02
      STREAM LEAKAGE     =           0.0000        STREAM LEAKAGE     =           0.0000

               TOTAL OUT =   113037744.0000                 TOTAL OUT =           0.9476

                IN - OUT =         -48.0000                  IN - OUT =           0.0000

     PERCENT DISCREPANCY =          -0.00         PERCENT DISCREPANCY =           0.00






         TIME SUMMARY AT END OF TIME STEP   30 IN STRESS PERIOD   23
                    SECONDS     MINUTES      HOURS       DAYS        YEARS
                    -----------------------------------------------------------
   TIME STEP LENGTH 2.49961E+05  4166.0      69.434      2.8931     7.92080E-03
 STRESS PERIOD TIME 2.59200E+06  43200.      720.00      30.000     8.21355E-02
         TOTAL TIME 5.96160E+07 9.93599E+05  16560.      690.00      1.8891    
1
1
                            STRESS PERIOD NO.   24, LENGTH =   2592000.    
                            -----------------------------------------------

                              NUMBER OF TIME STEPS =    30

                               MULTIPLIER FOR DELT =     1.100

                            INITIAL TIME STEP SIZE =   15757.40    

 REUSING NON-PARAMETER WELLS FROM LAST STRESS PERIOD

      1 WELL 

 REUSING NON-PARAMETER GHB CELLS FROM LAST STRESS PERIOD

      7 GHB CELLS



 CLASSIFICATION & COUNT OF STREAM SEGMENTS BASED ON SOURCE OF INFLOW:

                HEADWATER     DIVERSION     RECEIVES TRIBUTARY FLOW
                ---------     ---------     -----------------------
                     1              0               0



                    INPUT DATA FOR EACH STREAM SEGMENT
 ---------------------------------------------------------------------------------------------

 SEGMENT    SEG.     INFLOW   OVERLAND   STREAM    STREAM   ICALC  OUTFLOW  DIVERSION PRIORITY
    NO.    LENGTH     RATE     RUNOFF      ET       PPT.    METH.  TO SEG.  FROM SEG.    NO.

      1  2.000E+04 1.163E+00 0.000E+00 0.000E+00 0.000E+00    2        0        0        0


         STREAMBED PROPERTIES AND STREAM DIMENSIONS

 SEGMENT     BED HYD. COND.      BED THICKNESS     ELEV.-TOP OF BED     WIDTH OF STREAM     DEPTH OF STREAM    STREAM ROUGHNESS
    No.     UPPER     LOWER     UPPER     LOWER     UPPER     LOWER     UPPER     LOWER     UPPER     LOWER   CHANNEL      BANK

     1  3.500E-07 3.500E-07                                                                                 3.000E-02 4.000E-02

  EIGHT POINT CROSS-SECTION DATA FOR SEGMENTS WITH ICALC = 2
    X VALUES X VALUES START FROM LEFT SIDE LOOKING DOWNSTREAM

     SEGMENT NO.        X1        X2        X3        X4        X5        X6        X7        X8
            1      0.000E+00 2.000E+00 4.000E+00 6.000E+00 8.000E+00 1.000E+01 1.200E+01 1.400E+01

    Z VALUES ARE RELATIVE TO STREAMBED ELEVATION

     SEGMENT NO.          Z1        Z2        Z3        Z4        Z5        Z6        Z7        Z8
            1      6.000E+00 4.500E+00 3.500E+00 0.000E+00 3.000E-01 3.500E+00 4.500E+00 6.000E+00



 
 SOLVING FOR HEAD 
                                                   Max.-Head-Change                         Max.-Flux-Residual
  Residual-Control   Outer-Iter.   Inner-Iter.     Column Row Layer    Maximum-Head-Change  Column Row Layer    Maximum-Flux-Residual          L2-NORM 
          0                 1           2            73    1     1      -0.7388265573E-02      50    3    1         0.2575232023E-01      0.4491438565E-01
          0                 2           2            73    1     1       0.7202968115E-03      55    5    1        -0.1657863219E-02      0.3422674393E-02
          0                 3           1            72    1     1      -0.6375662883E-04      55    5    1         0.1525432655E-03      0.3165823856E-03
          0                 4           1            72    1     1       0.5046019313E-05      55    5    1        -0.1219193214E-04      0.2572323533E-04
          0                 5           1            72    1     1      -0.3511932515E-06      55    5    1         0.8572359884E-06      0.1820435733E-05

    ------------------------------------------------
       NWT REQUIRED            5 OUTER ITERATIONS 
       AND A TOTAL OF          7 INNER ITERATIONS.
    ------------------------------------------------

 NO OUTPUT CONTROL FOR STRESS PERIOD   24   TIME STEP    1
 
 WELLS WITH REDUCED PUMPING FOR STRESS PERIOD    24 TIME STEP     1
   LAY   ROW   COL         APPL.Q          ACT.Q        GW-HEAD       CELL-BOT
     1     3    50  -0.550035E+00  -0.498371E+00   0.907994E-03   0.000000E+00
     1     5    55  -0.550035E+00  -0.407036E+00   0.739398E-03   0.000000E+00
 
 
 SOLVING FOR HEAD 
                                                   Max.-Head-Change                         Max.-Flux-Residual
  Residual-Control   Outer-Iter.   Inner-Iter.     Column Row Layer    Maximum-Head-Change  Column Row Layer    Maximum-Flux-Residual          L2-NORM 
          0                 1           2            73    1     1      -0.8123381716E-02      72    3    1        -0.1541828863E-02      0.3019496195E-01
          0                 2           2            72    1     1       0.7902388082E-03      72    3    1         0.1541794361E-03      0.2955217711E-02
          0                 3           1            72    1     1      -0.6985870065E-04      72    3    1        -0.1387625680E-04      0.2744856328E-03
          0                 4           1            72    1     1       0.5524330279E-05      72    3    1         0.1111495187E-05      0.2249390037E-04
          0                 5           1            72    1     1      -0.3843350806E-06      72    3    1        -0.7813753200E-07      0.1598653480E-05

    ------------------------------------------------
       NWT REQUIRED            5 OUTER ITERATIONS 
       AND A TOTAL OF          7 INNER ITERATIONS.
    ------------------------------------------------

 NO OUTPUT CONTROL FOR STRESS PERIOD   24   TIME STEP    2
 
 WELLS WITH REDUCED PUMPING FOR STRESS PERIOD    24 TIME STEP     2
   LAY   ROW   COL         APPL.Q          ACT.Q        GW-HEAD       CELL-BOT
     1     3    50  -0.549964E+00  -0.498244E+00   0.907855E-03   0.000000E+00
     1     5    55  -0.549964E+00  -0.406899E+00   0.739272E-03   0.000000E+00
 
 
 SOLVING FOR HEAD 
                                                   Max.-Head-Change                         Max.-Flux-Residual
  Residual-Control   Outer-Iter.   Inner-Iter.     Column Row Layer    Maximum-Head-Change  Column Row Layer    Maximum-Flux-Residual          L2-NORM 
          0                 1           2            73    1     1      -0.8931009810E-02      72    3    1        -0.1540730790E-02      0.3018997689E-01
          0                 2           2            72    1     1       0.8668025280E-03      72    3    1         0.1540691506E-03      0.2955470869E-02
          0                 3           1            72    1     1      -0.7649511228E-04      72    3    1        -0.1386635140E-04      0.2751844955E-03
          0                 4           1            72    1     1       0.6042909650E-05      72    3    1         0.1110705695E-05      0.2262542748E-04
          0                 5           1            72    1     1      -0.4201997376E-06      12    4    1         0.7913483913E-07      0.1611962213E-05

    ------------------------------------------------
       NWT REQUIRED            5 OUTER ITERATIONS 
       AND A TOTAL OF          7 INNER ITERATIONS.
    ------------------------------------------------

 NO OUTPUT CONTROL FOR STRESS PERIOD   24   TIME STEP    3
 
 WELLS WITH REDUCED PUMPING FOR STRESS PERIOD    24 TIME STEP     3
   LAY   ROW   COL         APPL.Q          ACT.Q        GW-HEAD       CELL-BOT
     1     3    50  -0.550044E+00  -0.498091E+00   0.907357E-03   0.000000E+00
     1     5    55  -0.550044E+00  -0.406744E+00   0.738946E-03   0.000000E+00
 
 
 SOLVING FOR HEAD 
                                                   Max.-Head-Change                         Max.-Flux-Residual
  Residual-Control   Outer-Iter.   Inner-Iter.     Column Row Layer    Maximum-Head-Change  Column Row Layer    Maximum-Flux-Residual          L2-NORM 
          0                 1           2            73    1     1      -0.9817973256E-02      72    3    1        -0.1538788015E-02      0.3018515605E-01
          0                 2           2            72    1     1       0.9503901786E-03      72    3    1         0.1538744861E-03      0.2954971558E-02
          0                 3           1            72    1     1      -0.8370743168E-04      72    3    1        -0.1384885468E-04      0.2758163178E-03
          0                 4           1            72    1     1       0.6604502926E-05      72    3    1         0.1109310380E-05      0.2275699797E-04
          0                 5           1            72    1     1      -0.4589502259E-06      13    4    1         0.8318864531E-07      0.1625843588E-05

    ------------------------------------------------
       NWT REQUIRED            5 OUTER ITERATIONS 
       AND A TOTAL OF          7 INNER ITERATIONS.
    ------------------------------------------------

 NO OUTPUT CONTROL FOR STRESS PERIOD   24   TIME STEP    4
 
 WELLS WITH REDUCED PUMPING FOR STRESS PERIOD    24 TIME STEP     4
   LAY   ROW   COL         APPL.Q          ACT.Q        GW-HEAD       CELL-BOT
     1     3    50  -0.549971E+00  -0.497921E+00   0.907128E-03   0.000000E+00
     1     5    55  -0.549971E+00  -0.406571E+00   0.738767E-03   0.000000E+00
 
 
 SOLVING FOR HEAD 
                                                   Max.-Head-Change                         Max.-Flux-Residual
  Residual-Control   Outer-Iter.   Inner-Iter.     Column Row Layer    Maximum-Head-Change  Column Row Layer    Maximum-Flux-Residual          L2-NORM 
          0                 1           2            73    1     1      -0.1079185023E-01      72    3    1        -0.1536976702E-02      0.3017644575E-01
          0                 2           2            72    1     1       0.1041708569E-02      72    3    1         0.1536929574E-03      0.2954532264E-02
          0                 3           1            72    1     1      -0.9154500823E-04      72    3    1        -0.1383254334E-04      0.2764656943E-03
          0                 4           1            72    1     1       0.7212219826E-05      72    3    1         0.1108013405E-05      0.2289450583E-04
          0                 5           1            72    1     1      -0.5007643345E-06      13    4    1         0.8747417723E-07      0.1640657470E-05

    ------------------------------------------------
       NWT REQUIRED            5 OUTER ITERATIONS 
       AND A TOTAL OF          7 INNER ITERATIONS.
    ------------------------------------------------

 NO OUTPUT CONTROL FOR STRESS PERIOD   24   TIME STEP    5
 
 WELLS WITH REDUCED PUMPING FOR STRESS PERIOD    24 TIME STEP     5
   LAY   ROW   COL         APPL.Q          ACT.Q        GW-HEAD       CELL-BOT
     1     3    50  -0.550038E+00  -0.497734E+00   0.906583E-03   0.000000E+00
     1     5    55  -0.550038E+00  -0.406379E+00   0.738402E-03   0.000000E+00
 
 
 SOLVING FOR HEAD 
                                                   Max.-Head-Change                         Max.-Flux-Residual
  Residual-Control   Outer-Iter.   Inner-Iter.     Column Row Layer    Maximum-Head-Change  Column Row Layer    Maximum-Flux-Residual          L2-NORM 
          0                 1           2            72    1     1      -0.1186219363E-01      72    3    1        -0.1535391889E-02      0.3016574862E-01
          0                 2           2            72    1     1       0.1141614454E-02      72    3    1         0.1535343136E-03      0.2953695609E-02
          0                 3           1            72    1     1      -0.1000755535E-03      72    3    1        -0.1381829428E-04      0.2770645858E-03
          0                 4           1            72    1     1       0.7870216369E-05      76    4    1        -0.1129591141E-05      0.2303251830E-04
          0                 5           1            72    1     1      -0.5458547592E-06      13    4    1         0.9170105741E-07      0.1656107933E-05

    ------------------------------------------------
       NWT REQUIRED            5 OUTER ITERATIONS 
       AND A TOTAL OF          7 INNER ITERATIONS.
    ------------------------------------------------

 NO OUTPUT CONTROL FOR STRESS PERIOD   24   TIME STEP    6
 
 WELLS WITH REDUCED PUMPING FOR STRESS PERIOD    24 TIME STEP     6
   LAY   ROW   COL         APPL.Q          ACT.Q        GW-HEAD       CELL-BOT
     1     3    50  -0.549968E+00  -0.497527E+00   0.906266E-03   0.000000E+00
     1     5    55  -0.549968E+00  -0.406165E+00   0.738156E-03   0.000000E+00
 
 
 SOLVING FOR HEAD 
                                                   Max.-Head-Change                         Max.-Flux-Residual
  Residual-Control   Outer-Iter.   Inner-Iter.     Column Row Layer    Maximum-Head-Change  Column Row Layer    Maximum-Flux-Residual          L2-NORM 
          0                 1           2            72    1     1      -0.1304026556E-01      71    3    1        -0.1539956206E-02      0.3015539621E-01
          0                 2           2            72    1     1       0.1251016818E-02      71    3    1         0.1539894558E-03      0.2952530251E-02
          0                 3           2            72    1     1      -0.1093747641E-03      71    3    1        -0.1385930389E-04      0.2776172299E-03
          0                 4           1            72    1     1       0.8584936488E-05      76    4    1        -0.1176469118E-05      0.2317132238E-04
          0                 5           1            71    1     1      -0.5946884223E-06      14    4    1         0.9577905757E-07      0.1672160178E-05

    ------------------------------------------------
       NWT REQUIRED            5 OUTER ITERATIONS 
       AND A TOTAL OF          8 INNER ITERATIONS.
    ------------------------------------------------

 NO OUTPUT CONTROL FOR STRESS PERIOD   24   TIME STEP    7
 
 WELLS WITH REDUCED PUMPING FOR STRESS PERIOD    24 TIME STEP     7
   LAY   ROW   COL         APPL.Q          ACT.Q        GW-HEAD       CELL-BOT
     1     3    50  -0.550016E+00  -0.497293E+00   0.905658E-03   0.000000E+00
     1     5    55  -0.550016E+00  -0.405924E+00   0.737740E-03   0.000000E+00
 
 
 SOLVING FOR HEAD 
                                                   Max.-Head-Change                         Max.-Flux-Residual
  Residual-Control   Outer-Iter.   Inner-Iter.     Column Row Layer    Maximum-Head-Change  Column Row Layer    Maximum-Flux-Residual          L2-NORM 
          0                 1           2            72    1     1      -0.1433339309E-01      71    3    1        -0.1537299698E-02      0.3014435617E-01
          0                 2           2            72    1     1       0.1370452225E-02      71    3    1         0.1537230000E-03      0.2951377445E-02
          0                 3           2            72    1     1      -0.1194679732E-03      71    3    1        -0.1383535940E-04      0.2781753940E-03
          0                 4           1            71    1     1       0.9357219006E-05      76    4    1        -0.1222468148E-05      0.2331372770E-04
          0                 5           1            71    1     1      -0.6474915768E-06      14    4    1         0.9998439410E-07      0.1688976220E-05

    ------------------------------------------------
       NWT REQUIRED            5 OUTER ITERATIONS 
       AND A TOTAL OF          8 INNER ITERATIONS.
    ------------------------------------------------

 NO OUTPUT CONTROL FOR STRESS PERIOD   24   TIME STEP    8
 
 WELLS WITH REDUCED PUMPING FOR STRESS PERIOD    24 TIME STEP     8
   LAY   ROW   COL         APPL.Q          ACT.Q        GW-HEAD       CELL-BOT
     1     3    50  -0.550023E+00  -0.497029E+00   0.905066E-03   0.000000E+00
     1     5    55  -0.550023E+00  -0.405655E+00   0.737327E-03   0.000000E+00
 
 
 SOLVING FOR HEAD 
                                                   Max.-Head-Change                         Max.-Flux-Residual
  Residual-Control   Outer-Iter.   Inner-Iter.     Column Row Layer    Maximum-Head-Change  Column Row Layer    Maximum-Flux-Residual          L2-NORM 
          0                 1           2            72    1     1      -0.1575164707E-01      72    3    1        -0.1533643857E-02      0.3013254797E-01
          0                 2           2            72    1     1       0.1500748301E-02      72    3    1         0.1533575645E-03      0.2950057180E-02
          0                 3           2            72    1     1      -0.1304134688E-03      72    3    1        -0.1380250380E-04      0.2786865200E-03
          0                 4           1            71    1     1       0.1019008021E-04      75    4    1        -0.1267713017E-05      0.2345419730E-04
          0                 5           1            71    1     1      -0.7039299186E-06      76    4    1         0.1040881141E-06      0.1706140719E-05

    ------------------------------------------------
       NWT REQUIRED            5 OUTER ITERATIONS 
       AND A TOTAL OF          8 INNER ITERATIONS.
    ------------------------------------------------

 NO OUTPUT CONTROL FOR STRESS PERIOD   24   TIME STEP    9
 
 WELLS WITH REDUCED PUMPING FOR STRESS PERIOD    24 TIME STEP     9
   LAY   ROW   COL         APPL.Q          ACT.Q        GW-HEAD       CELL-BOT
     1     3    50  -0.549977E+00  -0.496736E+00   0.904515E-03   0.000000E+00
     1     5    55  -0.549977E+00  -0.405356E+00   0.736927E-03   0.000000E+00
 
 
 SOLVING FOR HEAD 
                                                   Max.-Head-Change                         Max.-Flux-Residual
  Residual-Control   Outer-Iter.   Inner-Iter.     Column Row Layer    Maximum-Head-Change  Column Row Layer    Maximum-Flux-Residual          L2-NORM 
          0                 1           2            72    1     1      -0.1730687305E-01      72    3    1        -0.1532216443E-02      0.3011883130E-01
          0                 2           2            72    1     1       0.1642884958E-02      72    3    1         0.1532141471E-03      0.2948670746E-02
          0                 3           2            72    1     1      -0.1422811120E-03      72    3    1        -0.1378964413E-04      0.2791987129E-03
          0                 4           1            71    1     1       0.1108622488E-04      75    4    1        -0.1311923839E-05      0.2359685258E-04
          0                 5           1            71    1     1      -0.7643132371E-06      76    4    1         0.1088122517E-06      0.1723820059E-05

    ------------------------------------------------
       NWT REQUIRED            5 OUTER ITERATIONS 
       AND A TOTAL OF          8 INNER ITERATIONS.
    ------------------------------------------------

 NO OUTPUT CONTROL FOR STRESS PERIOD   24   TIME STEP   10
 
 WELLS WITH REDUCED PUMPING FOR STRESS PERIOD    24 TIME STEP    10
   LAY   ROW   COL         APPL.Q          ACT.Q        GW-HEAD       CELL-BOT
     1     3    50  -0.550013E+00  -0.496414E+00   0.903742E-03   0.000000E+00
     1     5    55  -0.550013E+00  -0.405029E+00   0.736395E-03   0.000000E+00
 
 
 SOLVING FOR HEAD 
                                                   Max.-Head-Change                         Max.-Flux-Residual
  Residual-Control   Outer-Iter.   Inner-Iter.     Column Row Layer    Maximum-Head-Change  Column Row Layer    Maximum-Flux-Residual          L2-NORM 
          0                 1           2            72    1     1      -0.1901245917E-01      72    3    1        -0.1530648207E-02      0.3010283537E-01
          0                 2           2            72    1     1       0.1797973103E-02      72    3    1         0.1530566007E-03      0.2947312413E-02
          0                 3           2            72    1     1      -0.1551505482E-03      72    3    1        -0.1377551812E-04      0.2796984358E-03
          0                 4           1            71    1     1       0.1205130140E-04      75    4    1        -0.1354810404E-05      0.2373848748E-04
          0                 5           1            71    1     1      -0.8289347427E-06      76    4    1         0.1134764069E-06      0.1741720053E-05

    ------------------------------------------------
       NWT REQUIRED            5 OUTER ITERATIONS 
       AND A TOTAL OF          8 INNER ITERATIONS.
    ------------------------------------------------

 NO OUTPUT CONTROL FOR STRESS PERIOD   24   TIME STEP   11
 
 WELLS WITH REDUCED PUMPING FOR STRESS PERIOD    24 TIME STEP    11
   LAY   ROW   COL         APPL.Q          ACT.Q        GW-HEAD       CELL-BOT
     1     3    50  -0.550018E+00  -0.496055E+00   0.902951E-03   0.000000E+00
     1     5    55  -0.550018E+00  -0.404663E+00   0.735837E-03   0.000000E+00
 
 
 SOLVING FOR HEAD 
                                                   Max.-Head-Change                         Max.-Flux-Residual
  Residual-Control   Outer-Iter.   Inner-Iter.     Column Row Layer    Maximum-Head-Change  Column Row Layer    Maximum-Flux-Residual          L2-NORM 
          0                 1           2            72    1     1      -0.2088315216E-01      72    2    1        -0.1529000700E-02      0.3007936152E-01
          0                 2           2            72    1     1       0.1967239924E-02      72    7    1         0.1528958802E-03      0.2945528245E-02
          0                 3           2            72    7     1      -0.1691100605E-03      72    2    1        -0.1376096484E-04      0.2801412856E-03
          0                 4           1            71    1     1       0.1309098858E-04      75    4    1        -0.1396238540E-05      0.2387649619E-04
          0                 5           1            71    1     1      -0.8980746384E-06      76    4    1         0.1180593205E-06      0.1759643281E-05

    ------------------------------------------------
       NWT REQUIRED            5 OUTER ITERATIONS 
       AND A TOTAL OF          8 INNER ITERATIONS.
    ------------------------------------------------

 NO OUTPUT CONTROL FOR STRESS PERIOD   24   TIME STEP   12
 
 WELLS WITH REDUCED PUMPING FOR STRESS PERIOD    24 TIME STEP    12
   LAY   ROW   COL         APPL.Q          ACT.Q        GW-HEAD       CELL-BOT
     1     3    50  -0.549979E+00  -0.495665E+00   0.902181E-03   0.000000E+00
     1     5    55  -0.549979E+00  -0.404258E+00   0.735272E-03   0.000000E+00
 
 
 SOLVING FOR HEAD 
                                                   Max.-Head-Change                         Max.-Flux-Residual
  Residual-Control   Outer-Iter.   Inner-Iter.     Column Row Layer    Maximum-Head-Change  Column Row Layer    Maximum-Flux-Residual          L2-NORM 
          0                 1           2            72    1     1      -0.2293725094E-01      72    1    1        -0.1527271850E-02      0.3005287007E-01
          0                 2           2            72    7     1       0.2152354887E-02      72    7    1         0.1527238259E-03      0.2942934134E-02
          0                 3           2            72    7     1      -0.1842833318E-03      72    7    1        -0.1374545722E-04      0.2804613070E-03
          0                 4           1            71    1     1       0.1421849577E-04      75    4    1        -0.1436087974E-05      0.2400366213E-04
          0                 5           1            71    1     1      -0.9723508074E-06      76    4    1         0.1225406354E-06      0.1777000825E-05

    ------------------------------------------------
       NWT REQUIRED            5 OUTER ITERATIONS 
       AND A TOTAL OF          8 INNER ITERATIONS.
    ------------------------------------------------

 NO OUTPUT CONTROL FOR STRESS PERIOD   24   TIME STEP   13
 
 WELLS WITH REDUCED PUMPING FOR STRESS PERIOD    24 TIME STEP    13
   LAY   ROW   COL         APPL.Q          ACT.Q        GW-HEAD       CELL-BOT
     1     3    50  -0.549983E+00  -0.495241E+00   0.901256E-03   0.000000E+00
     1     5    55  -0.549983E+00  -0.403821E+00   0.734609E-03   0.000000E+00
 
 
 SOLVING FOR HEAD 
                                                   Max.-Head-Change                         Max.-Flux-Residual
  Residual-Control   Outer-Iter.   Inner-Iter.     Column Row Layer    Maximum-Head-Change  Column Row Layer    Maximum-Flux-Residual          L2-NORM 
          0                 1           2            72    1     1      -0.2519268440E-01      72    1    1        -0.1525512042E-02      0.3002358864E-01
          0                 2           2            72    7     1       0.2354616343E-02      72    7    1         0.1525473091E-03      0.2940146876E-02
          0                 3           2            72    7     1      -0.2007649755E-03      72    7    1        -0.1372962341E-04      0.2807664969E-03
          0                 4           1            71    1     1       0.1543547176E-04      75    4    1        -0.1474251384E-05      0.2412957801E-04
          0                 5           1            71    1     1      -0.1052040438E-05      76    4    1         0.1269011651E-06      0.1794328099E-05
          0                 6           1            70    1     1       0.6232652766E-07      76    4    1        -0.8587605294E-08      0.1130272926E-06

    ------------------------------------------------
       NWT REQUIRED            6 OUTER ITERATIONS 
       AND A TOTAL OF          9 INNER ITERATIONS.
    ------------------------------------------------

 NO OUTPUT CONTROL FOR STRESS PERIOD   24   TIME STEP   14
 
 WELLS WITH REDUCED PUMPING FOR STRESS PERIOD    24 TIME STEP    14
   LAY   ROW   COL         APPL.Q          ACT.Q        GW-HEAD       CELL-BOT
     1     3    50  -0.550012E+00  -0.494773E+00   0.900193E-03   0.000000E+00
     1     5    55  -0.550012E+00  -0.403344E+00   0.733861E-03   0.000000E+00
 
 
 SOLVING FOR HEAD 
                                                   Max.-Head-Change                         Max.-Flux-Residual
  Residual-Control   Outer-Iter.   Inner-Iter.     Column Row Layer    Maximum-Head-Change  Column Row Layer    Maximum-Flux-Residual          L2-NORM 
          0                 1           2            72    1     1      -0.2766667665E-01      72    1    1        -0.1523721237E-02      0.2999680720E-01
          0                 2           2            72    7     1       0.2575597605E-02      72    7    1         0.1523675556E-03      0.2936714598E-02
          0                 3           2            71    7     1      -0.2187071120E-03      72    7    1        -0.1371350577E-04      0.2809536349E-03
          0                 4           1            71    1     1       0.1674684327E-04      75    4    1        -0.1510640393E-05      0.2424384110E-04
          0                 5           1            71    1     1      -0.1137206299E-05      76    4    1         0.1311232634E-06      0.1810850136E-05
          0                 6           1            70    1     1       0.6720049347E-07      76    4    1        -0.8941443141E-08      0.1145442762E-06

    ------------------------------------------------
       NWT REQUIRED            6 OUTER ITERATIONS 
       AND A TOTAL OF          9 INNER ITERATIONS.
    ------------------------------------------------

 NO OUTPUT CONTROL FOR STRESS PERIOD   24   TIME STEP   15
 
 WELLS WITH REDUCED PUMPING FOR STRESS PERIOD    24 TIME STEP    15
   LAY   ROW   COL         APPL.Q          ACT.Q        GW-HEAD       CELL-BOT
     1     3    50  -0.550012E+00  -0.494262E+00   0.899095E-03   0.000000E+00
     1     5    55  -0.550012E+00  -0.402814E+00   0.733066E-03   0.000000E+00
 
 
 SOLVING FOR HEAD 
                                                   Max.-Head-Change                         Max.-Flux-Residual
  Residual-Control   Outer-Iter.   Inner-Iter.     Column Row Layer    Maximum-Head-Change  Column Row Layer    Maximum-Flux-Residual          L2-NORM 
          0                 1           2            72    1     1      -0.3037807573E-01      72    1    1        -0.1521750942E-02      0.2996982192E-01
          0                 2           2            72    7     1       0.2816795467E-02      72    7    1         0.1521697130E-03      0.2933266960E-02
          0                 3           2            71    7     1      -0.2381307032E-03      72    7    1        -0.1369576814E-04      0.2811020573E-03
          0                 4           1            71    1     1       0.1815532736E-04      74    4    1        -0.1545288931E-05      0.2435425170E-04
          0                 5           1            71    1     1      -0.1227821508E-05      76    4    1         0.1351899606E-06      0.1827034978E-05
          0                 6           1            70    1     1       0.7230672820E-07      76    4    1        -0.9287482783E-08      0.1160486489E-06

    ------------------------------------------------
       NWT REQUIRED            6 OUTER ITERATIONS 
       AND A TOTAL OF          9 INNER ITERATIONS.
    ------------------------------------------------

 NO OUTPUT CONTROL FOR STRESS PERIOD   24   TIME STEP   16
 
 WELLS WITH REDUCED PUMPING FOR STRESS PERIOD    24 TIME STEP    16
   LAY   ROW   COL         APPL.Q          ACT.Q        GW-HEAD       CELL-BOT
     1     3    50  -0.550012E+00  -0.493705E+00   0.897903E-03   0.000000E+00
     1     5    55  -0.550012E+00  -0.402239E+00   0.732204E-03   0.000000E+00
 
 
 SOLVING FOR HEAD 
                                                   Max.-Head-Change                         Max.-Flux-Residual
  Residual-Control   Outer-Iter.   Inner-Iter.     Column Row Layer    Maximum-Head-Change  Column Row Layer    Maximum-Flux-Residual          L2-NORM 
          0                 1           2            72    7     1      -0.3334891130E-01      72    1    1        -0.1519503194E-02      0.2993635289E-01
          0                 2           2            72    7     1       0.3080194428E-02      72    7    1         0.1519440098E-03      0.2930380287E-02
          0                 3           2            71    7     1      -0.2592486578E-03      72    7    1        -0.1367553089E-04      0.2812928946E-03
          0                 4           1            71    1     1       0.1967527969E-04      74    4    1        -0.1578306884E-05      0.2446354694E-04
          0                 5           1            71    1     1      -0.1324627711E-05      74    4    1         0.1391310462E-06      0.1842674889E-05
          0                 6           1            70    1     1       0.7772264986E-07      76    4    1        -0.9623922992E-08      0.1175105592E-06

    ------------------------------------------------
       NWT REQUIRED            6 OUTER ITERATIONS 
       AND A TOTAL OF          9 INNER ITERATIONS.
    ------------------------------------------------

 NO OUTPUT CONTROL FOR STRESS PERIOD   24   TIME STEP   17
 
 WELLS WITH REDUCED PUMPING FOR STRESS PERIOD    24 TIME STEP    17
   LAY   ROW   COL         APPL.Q          ACT.Q        GW-HEAD       CELL-BOT
     1     3    50  -0.549993E+00  -0.493053E+00   0.896550E-03   0.000000E+00
     1     5    55  -0.549993E+00  -0.401562E+00   0.731211E-03   0.000000E+00
 
 
 SOLVING FOR HEAD 
                                                   Max.-Head-Change                         Max.-Flux-Residual
  Residual-Control   Outer-Iter.   Inner-Iter.     Column Row Layer    Maximum-Head-Change  Column Row Layer    Maximum-Flux-Residual          L2-NORM 
          0                 1           2            72    7     1      -0.3660508932E-01      72    1    1        -0.1516961316E-02      0.2989222482E-01
          0                 2           2            72    7     1       0.3367734634E-02      72    7    1         0.1516888174E-03      0.2926559069E-02
          0                 3           2            71    7     1      -0.2821555165E-03      72    7    1        -0.1365264769E-04      0.2813890517E-03
          0                 4           1            71    1     1       0.2131180555E-04      74    4    1        -0.1609315605E-05      0.2456347044E-04
          0                 5           1            71    1     1      -0.1427834079E-05      74    4    1         0.1429363312E-06      0.1857245508E-05
          0                 6           1            70    7     1       0.8342855856E-07      76    4    1        -0.9949088664E-08      0.1188922240E-06

    ------------------------------------------------
       NWT REQUIRED            6 OUTER ITERATIONS 
       AND A TOTAL OF          9 INNER ITERATIONS.
    ------------------------------------------------

 NO OUTPUT CONTROL FOR STRESS PERIOD   24   TIME STEP   18
 
 WELLS WITH REDUCED PUMPING FOR STRESS PERIOD    24 TIME STEP    18
   LAY   ROW   COL         APPL.Q          ACT.Q        GW-HEAD       CELL-BOT
     1     3    50  -0.549991E+00  -0.492380E+00   0.895127E-03   0.000000E+00
     1     5    55  -0.549991E+00  -0.400880E+00   0.730195E-03   0.000000E+00
 
 
 SOLVING FOR HEAD 
                                                   Max.-Head-Change                         Max.-Flux-Residual
  Residual-Control   Outer-Iter.   Inner-Iter.     Column Row Layer    Maximum-Head-Change  Column Row Layer    Maximum-Flux-Residual          L2-NORM 
          0                 1           2            72    7     1      -0.4017254042E-01      72    1    1        -0.1514206959E-02      0.2984576798E-01
          0                 2           2            72    7     1       0.3681877379E-02      72    7    1         0.1514122164E-03      0.2921541208E-02
          0                 3           2            71    7     1      -0.3070949450E-03      72    7    1        -0.1362784529E-04      0.2812378789E-03
          0                 4           1            71    1     1       0.2308278501E-04      74    4    1        -0.1638277787E-05      0.2463393962E-04
          0                 5           1            70    7     1      -0.1538633114E-05      74    4    1         0.1465480448E-06      0.1868941544E-05
          0                 6           1            69    1     1       0.8952408132E-07      76    4    1        -0.1026139529E-07      0.1200775441E-06

    ------------------------------------------------
       NWT REQUIRED            6 OUTER ITERATIONS 
       AND A TOTAL OF          9 INNER ITERATIONS.
    ------------------------------------------------

 NO OUTPUT CONTROL FOR STRESS PERIOD   24   TIME STEP   19
 
 WELLS WITH REDUCED PUMPING FOR STRESS PERIOD    24 TIME STEP    19
   LAY   ROW   COL         APPL.Q          ACT.Q        GW-HEAD       CELL-BOT
     1     3    50  -0.549988E+00  -0.491680E+00   0.893656E-03   0.000000E+00
     1     5    55  -0.549988E+00  -0.400162E+00   0.729125E-03   0.000000E+00
 
 
 SOLVING FOR HEAD 
                                                   Max.-Head-Change                         Max.-Flux-Residual
  Residual-Control   Outer-Iter.   Inner-Iter.     Column Row Layer    Maximum-Head-Change  Column Row Layer    Maximum-Flux-Residual          L2-NORM 
          0                 1           2            72    7     1      -0.4407803544E-01      72    1    1        -0.1511191497E-02      0.2981088467E-01
          0                 2           2            72    7     1       0.4024780476E-02      72    7    1         0.1511092881E-03      0.2915540258E-02
          0                 3           2            71    7     1      -0.3341551189E-03      72    7    1        -0.1360067925E-04      0.2807854484E-03
          0                 4           1            71    7     1       0.2499112199E-04      74    4    1        -0.1665137480E-05      0.2466709078E-04
          0                 5           1            71    7     1      -0.1656205765E-05      74    4    1         0.1499540225E-06      0.1876937327E-05
          0                 6           1            69    7     1       0.9588163941E-07      74    4    1        -0.1056255350E-07      0.1210055765E-06

    ------------------------------------------------
       NWT REQUIRED            6 OUTER ITERATIONS 
       AND A TOTAL OF          9 INNER ITERATIONS.
    ------------------------------------------------

 NO OUTPUT CONTROL FOR STRESS PERIOD   24   TIME STEP   20
 
 WELLS WITH REDUCED PUMPING FOR STRESS PERIOD    24 TIME STEP    20
   LAY   ROW   COL         APPL.Q          ACT.Q        GW-HEAD       CELL-BOT
     1     3    50  -0.550006E+00  -0.490927E+00   0.892042E-03   0.000000E+00
     1     5    55  -0.550006E+00  -0.399389E+00   0.727952E-03   0.000000E+00
 
 
 SOLVING FOR HEAD 
                                                   Max.-Head-Change                         Max.-Flux-Residual
  Residual-Control   Outer-Iter.   Inner-Iter.     Column Row Layer    Maximum-Head-Change  Column Row Layer    Maximum-Flux-Residual          L2-NORM 
          0                 1           2            72    7     1      -0.4835240476E-01      72    1    1        -0.1507839483E-02      0.2977513779E-01
          0                 2           2            72    7     1       0.4399142894E-02      72    7    1         0.1507725091E-03      0.2911597274E-02
          0                 3           2            72    7     1      -0.3635873753E-03      72    7    1        -0.1357046969E-04      0.2806827916E-03
          0                 4           1            71    7     1       0.2705294780E-04      74    4    1        -0.1689857140E-05      0.2473404327E-04
          0                 5           1            71    7     1      -0.1782003451E-05      74    4    1         0.1531442742E-06      0.1886516147E-05
          0                 6           1            69    7     1       0.1026652840E-06      74    4    1        -0.1085288837E-07      0.1219688785E-06

    ------------------------------------------------
       NWT REQUIRED            6 OUTER ITERATIONS 
       AND A TOTAL OF          9 INNER ITERATIONS.
    ------------------------------------------------

 NO OUTPUT CONTROL FOR STRESS PERIOD   24   TIME STEP   21
 
 WELLS WITH REDUCED PUMPING FOR STRESS PERIOD    24 TIME STEP    21
   LAY   ROW   COL         APPL.Q          ACT.Q        GW-HEAD       CELL-BOT
     1     3    50  -0.550000E+00  -0.490101E+00   0.890329E-03   0.000000E+00
     1     5    55  -0.550000E+00  -0.398550E+00   0.726709E-03   0.000000E+00
 
 
 SOLVING FOR HEAD 
                                                   Max.-Head-Change                         Max.-Flux-Residual
  Residual-Control   Outer-Iter.   Inner-Iter.     Column Row Layer    Maximum-Head-Change  Column Row Layer    Maximum-Flux-Residual          L2-NORM 
          0                 1           2            72    7     1      -0.5302824768E-01      72    1    1        -0.1504141612E-02      0.2976726670E-01
          0                 2           2            72    7     1       0.4807679371E-02      72    7    1         0.1504008737E-03      0.2906343089E-02
          0                 3           2            72    7     1      -0.3956005342E-03      72    7    1        -0.1353711698E-04      0.2800535683E-03
          0                 4           1            71    7     1       0.2928050065E-04      74    4    1        -0.1712401698E-05      0.2473426276E-04
          0                 5           1            71    7     1      -0.1916170507E-05      74    4    1         0.1561100262E-06      0.1889376339E-05
          0                 6           1            69    7     1       0.1097992997E-06      74    4    1        -0.1112630521E-07      0.1224536809E-06

    ------------------------------------------------
       NWT REQUIRED            6 OUTER ITERATIONS 
       AND A TOTAL OF          9 INNER ITERATIONS.
    ------------------------------------------------

 NO OUTPUT CONTROL FOR STRESS PERIOD   24   TIME STEP   22
 
 WELLS WITH REDUCED PUMPING FOR STRESS PERIOD    24 TIME STEP    22
   LAY   ROW   COL         APPL.Q          ACT.Q        GW-HEAD       CELL-BOT
     1     3    50  -0.549996E+00  -0.489186E+00   0.888436E-03   0.000000E+00
     1     5    55  -0.549996E+00  -0.397601E+00   0.725303E-03   0.000000E+00
 
 
 SOLVING FOR HEAD 
                                                   Max.-Head-Change                         Max.-Flux-Residual
  Residual-Control   Outer-Iter.   Inner-Iter.     Column Row Layer    Maximum-Head-Change  Column Row Layer    Maximum-Flux-Residual          L2-NORM 
          0                 1           3            72    1     1      -0.5813998226E-01      72    1    1        -0.1500068473E-02      0.2989067087E-01
          0                 2           2            72    7     1       0.5253419768E-02      72    1    1         0.1499920336E-03      0.2902962725E-02
          0                 3           2            72    7     1      -0.4304101106E-03      73    4    1         0.1350769843E-04      0.2788376371E-03
          0                 4           1            71    7     1       0.3168810282E-04      74    4    1        -0.1732745449E-05      0.2465672690E-04
          0                 5           1            71    7     1      -0.2058862898E-05      74    4    1         0.1588432603E-06      0.1884691184E-05
          0                 6           1            69    7     1       0.1172362440E-06      74    4    1        -0.1138088024E-07      0.1224257574E-06

    ------------------------------------------------
       NWT REQUIRED            6 OUTER ITERATIONS 
       AND A TOTAL OF         10 INNER ITERATIONS.
    ------------------------------------------------

 NO OUTPUT CONTROL FOR STRESS PERIOD   24   TIME STEP   23
 
 WELLS WITH REDUCED PUMPING FOR STRESS PERIOD    24 TIME STEP    23
   LAY   ROW   COL         APPL.Q          ACT.Q        GW-HEAD       CELL-BOT
     1     3    50  -0.549993E+00  -0.488224E+00   0.886457E-03   0.000000E+00
     1     5    55  -0.549993E+00  -0.396604E+00   0.723827E-03   0.000000E+00
 
 
 SOLVING FOR HEAD 
                                                   Max.-Head-Change                         Max.-Flux-Residual
  Residual-Control   Outer-Iter.   Inner-Iter.     Column Row Layer    Maximum-Head-Change  Column Row Layer    Maximum-Flux-Residual          L2-NORM 
          0                 1           3            73    1     1      -0.6373045593E-01      72    1    1        -0.1495568275E-02      0.3011508501E-01
          0                 2           2            72    7     1       0.5739900698E-02      72    7    1         0.1495399603E-03      0.2915545420E-02
          0                 3           2            72    7     1      -0.4682805179E-03      73    4    1         0.1358226015E-04      0.2793279969E-03
          0                 4           1            71    7     1       0.3428880427E-04      74    4    1        -0.1752488883E-05      0.2472263236E-04
          0                 5           1            71    7     1      -0.2210280818E-05      74    4    1         0.1614890976E-06      0.1888382622E-05
          0                 6           1            69    7     1       0.1249561258E-06      74    4    1        -0.1162581320E-07      0.1228078619E-06

    ------------------------------------------------
       NWT REQUIRED            6 OUTER ITERATIONS 
       AND A TOTAL OF         10 INNER ITERATIONS.
    ------------------------------------------------

 NO OUTPUT CONTROL FOR STRESS PERIOD   24   TIME STEP   24
 
 WELLS WITH REDUCED PUMPING FOR STRESS PERIOD    24 TIME STEP    24
   LAY   ROW   COL         APPL.Q          ACT.Q        GW-HEAD       CELL-BOT
     1     3    50  -0.549997E+00  -0.487189E+00   0.884329E-03   0.000000E+00
     1     5    55  -0.549997E+00  -0.395535E+00   0.722238E-03   0.000000E+00
 
 
 SOLVING FOR HEAD 
                                                   Max.-Head-Change                         Max.-Flux-Residual
  Residual-Control   Outer-Iter.   Inner-Iter.     Column Row Layer    Maximum-Head-Change  Column Row Layer    Maximum-Flux-Residual          L2-NORM 
          0                 1           3            76    4     1      -0.7035102308E-01      73    1    1        -0.1490808773E-02      0.3037112535E-01
          0                 2           2            74    7     1       0.6301619927E-02      73    1    1         0.1490689134E-03      0.2936926561E-02
          0                 3           2            74    7     1      -0.5113834123E-03      71    4    1         0.1359197324E-04      0.2807945403E-03
          0                 4           1            73    7     1       0.3716791555E-04      71    4    1        -0.1756445318E-05      0.2486194757E-04
          0                 5           1            71    7     1      -0.2372941189E-05      72    4    1         0.1625120234E-06      0.1894840397E-05
          0                 6           1            69    7     1       0.1330187542E-06      72    4    1        -0.1174741371E-07      0.1232332775E-06

    ------------------------------------------------
       NWT REQUIRED            6 OUTER ITERATIONS 
       AND A TOTAL OF         10 INNER ITERATIONS.
    ------------------------------------------------

 NO OUTPUT CONTROL FOR STRESS PERIOD   24   TIME STEP   25
 
 WELLS WITH REDUCED PUMPING FOR STRESS PERIOD    24 TIME STEP    25
   LAY   ROW   COL         APPL.Q          ACT.Q        GW-HEAD       CELL-BOT
     1     3    50  -0.550006E+00  -0.486072E+00   0.882040E-03   0.000000E+00
     1     5    55  -0.550006E+00  -0.394381E+00   0.720523E-03   0.000000E+00
 
 
 SOLVING FOR HEAD 
                                                   Max.-Head-Change                         Max.-Flux-Residual
  Residual-Control   Outer-Iter.   Inner-Iter.     Column Row Layer    Maximum-Head-Change  Column Row Layer    Maximum-Flux-Residual          L2-NORM 
          0                 1           3            75    4     1      -0.7874284772E-01      75    3    1        -0.1501192957E-02      0.3064335660E-01
          0                 2           2            75    7     1       0.7006247041E-02      75    3    1         0.1501262961E-03      0.2959563042E-02
          0                 3           2            75    7     1      -0.5668025970E-03      75    3    1        -0.1351338884E-04      0.2821690459E-03
          0                 4           1            74    7     1       0.4095560678E-04      68    4    1        -0.1719354731E-05      0.2497406876E-04
          0                 5           1            73    7     1      -0.2574626924E-05      70    4    1         0.1596261363E-06      0.1895254977E-05
          0                 6           1            71    7     1       0.1420336606E-06      76    4    1        -0.1176902309E-07      0.1231031292E-06

    ------------------------------------------------
       NWT REQUIRED            6 OUTER ITERATIONS 
       AND A TOTAL OF         10 INNER ITERATIONS.
    ------------------------------------------------

 NO OUTPUT CONTROL FOR STRESS PERIOD   24   TIME STEP   26
 
 WELLS WITH REDUCED PUMPING FOR STRESS PERIOD    24 TIME STEP    26
   LAY   ROW   COL         APPL.Q          ACT.Q        GW-HEAD       CELL-BOT
     1     3    50  -0.550003E+00  -0.484865E+00   0.879605E-03   0.000000E+00
     1     5    55  -0.550003E+00  -0.393133E+00   0.718685E-03   0.000000E+00
 
 
 SOLVING FOR HEAD 
                                                   Max.-Head-Change                         Max.-Flux-Residual
  Residual-Control   Outer-Iter.   Inner-Iter.     Column Row Layer    Maximum-Head-Change  Column Row Layer    Maximum-Flux-Residual          L2-NORM 
          0                 1           3            74    4     1      -0.8746804407E-01      75    3    1        -0.1525119411E-02      0.3091390202E-01
          0                 2           2            75    7     1       0.7794118006E-02      75    3    1         0.1525080696E-03      0.2984063640E-02
          0                 3           2            75    7     1      -0.6295966285E-03      75    3    1        -0.1372804719E-04      0.2837818691E-03
          0                 4           1            74    7     1       0.4532788845E-04      75    4    1        -0.1686136654E-05      0.2509946397E-04
          0                 5           1            73    7     1      -0.2817954909E-05      72    4    1         0.1611318083E-06      0.1892825245E-05
          0                 6           1            71    7     1       0.1532624662E-06      74    4    1        -0.1192192833E-07      0.1226183262E-06

    ------------------------------------------------
       NWT REQUIRED            6 OUTER ITERATIONS 
       AND A TOTAL OF         10 INNER ITERATIONS.
    ------------------------------------------------

 NO OUTPUT CONTROL FOR STRESS PERIOD   24   TIME STEP   27
 
 WELLS WITH REDUCED PUMPING FOR STRESS PERIOD    24 TIME STEP    27
   LAY   ROW   COL         APPL.Q          ACT.Q        GW-HEAD       CELL-BOT
     1     3    50  -0.550001E+00  -0.483556E+00   0.876985E-03   0.000000E+00
     1     5    55  -0.550001E+00  -0.391784E+00   0.716702E-03   0.000000E+00
 
 
 SOLVING FOR HEAD 
                                                   Max.-Head-Change                         Max.-Flux-Residual
  Residual-Control   Outer-Iter.   Inner-Iter.     Column Row Layer    Maximum-Head-Change  Column Row Layer    Maximum-Flux-Residual          L2-NORM 
          0                 1           3            74    4     1      -0.9688666839E-01      74    3    1        -0.1541243127E-02      0.3115529950E-01
          0                 2           2            74    7     1       0.8653789277E-02      74    5    1         0.1541160466E-03      0.3007860494E-02
          0                 3           2            74    7     1      -0.6982095925E-03      74    3    1        -0.1387448514E-04      0.2855973315E-03
          0                 4           1            74    7     1       0.5010834483E-04      75    4    1        -0.1685809179E-05      0.2525436683E-04
          0                 5           1            73    7     1      -0.3079882511E-05      74    4    1         0.1628970558E-06      0.1890154880E-05
          0                 6           1            71    7     1       0.1658851169E-06      74    4    1        -0.1212248790E-07      0.1220542650E-06

    ------------------------------------------------
       NWT REQUIRED            6 OUTER ITERATIONS 
       AND A TOTAL OF         10 INNER ITERATIONS.
    ------------------------------------------------

 NO OUTPUT CONTROL FOR STRESS PERIOD   24   TIME STEP   28
 
 WELLS WITH REDUCED PUMPING FOR STRESS PERIOD    24 TIME STEP    28
   LAY   ROW   COL         APPL.Q          ACT.Q        GW-HEAD       CELL-BOT
     1     3    50  -0.550001E+00  -0.482142E+00   0.874170E-03   0.000000E+00
     1     5    55  -0.550001E+00  -0.390323E+00   0.714557E-03   0.000000E+00
 
 
 SOLVING FOR HEAD 
                                                   Max.-Head-Change                         Max.-Flux-Residual
  Residual-Control   Outer-Iter.   Inner-Iter.     Column Row Layer    Maximum-Head-Change  Column Row Layer    Maximum-Flux-Residual          L2-NORM 
          0                 1           3            74    4     1      -0.1071679705E+00      74    3    1        -0.1553276063E-02      0.3132085901E-01
          0                 2           2            74    7     1       0.9587141713E-02      74    5    1         0.1553145216E-03      0.3028786646E-02
          0                 3           2            74    7     1      -0.7727041254E-03      74    3    1        -0.1398327035E-04      0.2874417059E-03
          0                 4           1            74    7     1       0.5529360114E-04      76    4    1        -0.1685556152E-05      0.2541981251E-04
          0                 5           1            73    7     1      -0.3356010116E-05      76    4    1         0.1641011345E-06      0.1884751696E-05
          0                 6           1            71    7     1       0.1788552263E-06      76    4    1        -0.1224107393E-07      0.1212182195E-06

    ------------------------------------------------
       NWT REQUIRED            6 OUTER ITERATIONS 
       AND A TOTAL OF         10 INNER ITERATIONS.
    ------------------------------------------------

 NO OUTPUT CONTROL FOR STRESS PERIOD   24   TIME STEP   29
 
 WELLS WITH REDUCED PUMPING FOR STRESS PERIOD    24 TIME STEP    29
   LAY   ROW   COL         APPL.Q          ACT.Q        GW-HEAD       CELL-BOT
     1     3    50  -0.549996E+00  -0.480613E+00   0.871163E-03   0.000000E+00
     1     5    55  -0.549996E+00  -0.388744E+00   0.712250E-03   0.000000E+00
 
 
 SOLVING FOR HEAD 
                                                   Max.-Head-Change                         Max.-Flux-Residual
  Residual-Control   Outer-Iter.   Inner-Iter.     Column Row Layer    Maximum-Head-Change  Column Row Layer    Maximum-Flux-Residual          L2-NORM 
          0                 1           3            74    5     1      -0.1182958107E+00      74    3    1        -0.1562251916E-02      0.3141287043E-01
          0                 2           3            74    7     1       0.1060103317E-01      74    5    1         0.1562056950E-03      0.3040120980E-02
          0                 3           2            74    7     1      -0.8540233811E-03      74    5    1        -0.1406175926E-04      0.2883907637E-03
          0                 4           1            74    7     1       0.6095128165E-04      72    4    1        -0.1689425860E-05      0.2550269842E-04
          0                 5           1            71    7     1      -0.3639237858E-05      72    4    1         0.1648646979E-06      0.1869703428E-05
          0                 6           1            69    7     1       0.1927145635E-06      72    4    1        -0.1234069380E-07      0.1197543364E-06

    ------------------------------------------------
       NWT REQUIRED            6 OUTER ITERATIONS 
       AND A TOTAL OF         11 INNER ITERATIONS.
    ------------------------------------------------

 NO OUTPUT CONTROL FOR STRESS PERIOD   24   TIME STEP   30
 
 WELLS WITH REDUCED PUMPING FOR STRESS PERIOD    24 TIME STEP    30
   LAY   ROW   COL         APPL.Q          ACT.Q        GW-HEAD       CELL-BOT
     1     3    50  -0.549997E+00  -0.478948E+00   0.867906E-03   0.000000E+00
     1     5    55  -0.549997E+00  -0.387037E+00   0.709754E-03   0.000000E+00
 



 STREAM LISTING     PERIOD     24   STEP       30

 LAYER ROW COL. STREAM  RCH.   FLOW INTO    STREAM     FLOW OUT OF   OVRLND.    DIRECT     STREAM      STREAM      STREAM     STREAM  STREAMBED   FLOW TO   CHNG. UNSAT. 
                SEG.NO.  NO.   STRM. RCH.    LOSS       STRM. RCH.   RUNOFF     PRECIP       ET         HEAD        DEPTH      WIDTH  CONDCTNC.   WAT. TAB.

   1    4    1     1     1    1.1630E+00  6.4112E-04   1.1624E+00  0.000E+00  0.000E+00  0.000E+00  1.40648E+02  7.979E-01  2.767E+00  4.940E-04  7.012E-04 -6.009E-05
   1    4    2     1     2    1.1624E+00  6.4092E-04   1.1617E+00  0.000E+00  0.000E+00  0.000E+00  1.40348E+02  7.977E-01  2.767E+00  4.939E-04  7.009E-04 -5.996E-05
   1    4    3     1     3    1.1617E+00  6.4072E-04   1.1611E+00  0.000E+00  0.000E+00  0.000E+00  1.40047E+02  7.974E-01  2.767E+00  4.938E-04  7.006E-04 -5.983E-05
   1    4    4     1     4    1.1611E+00  6.4052E-04   1.1604E+00  0.000E+00  0.000E+00  0.000E+00  1.39747E+02  7.972E-01  2.766E+00  4.938E-04  7.002E-04 -5.969E-05
   1    4    5     1     5    1.1604E+00  6.4032E-04   1.1598E+00  0.000E+00  0.000E+00  0.000E+00  1.39447E+02  7.970E-01  2.766E+00  4.937E-04  6.999E-04 -5.954E-05
   1    4    6     1     6    1.1598E+00  6.4012E-04   1.1592E+00  0.000E+00  0.000E+00  0.000E+00  1.39147E+02  7.968E-01  2.766E+00  4.936E-04  6.995E-04 -5.938E-05
   1    4    7     1     7    1.1592E+00  6.3992E-04   1.1585E+00  0.000E+00  0.000E+00  0.000E+00  1.38847E+02  7.966E-01  2.766E+00  4.936E-04  6.991E-04 -5.920E-05
   1    4    8     1     8    1.1585E+00  6.3972E-04   1.1579E+00  0.000E+00  0.000E+00  0.000E+00  1.38546E+02  7.963E-01  2.765E+00  4.935E-04  6.987E-04 -5.900E-05
   1    4    9     1     9    1.1579E+00  6.3952E-04   1.1572E+00  0.000E+00  0.000E+00  0.000E+00  1.38246E+02  7.961E-01  2.765E+00  4.934E-04  6.983E-04 -5.878E-05
   1    4   10     1    10    1.1572E+00  6.3932E-04   1.1566E+00  0.000E+00  0.000E+00  0.000E+00  1.37946E+02  7.959E-01  2.765E+00  4.933E-04  6.979E-04 -5.856E-05
   1    4   11     1    11    1.1566E+00  6.3912E-04   1.1560E+00  0.000E+00  0.000E+00  0.000E+00  1.37646E+02  7.957E-01  2.764E+00  4.933E-04  6.974E-04 -5.832E-05
   1    4   12     1    12    1.1560E+00  6.3892E-04   1.1553E+00  0.000E+00  0.000E+00  0.000E+00  1.37345E+02  7.955E-01  2.764E+00  4.932E-04  6.970E-04 -5.807E-05
   1    4   13     1    13    1.1553E+00  6.3872E-04   1.1547E+00  0.000E+00  0.000E+00  0.000E+00  1.37045E+02  7.953E-01  2.764E+00  4.931E-04  6.965E-04 -5.781E-05
   1    4   14     1    14    1.1547E+00  6.3852E-04   1.1540E+00  0.000E+00  0.000E+00  0.000E+00  1.36745E+02  7.950E-01  2.764E+00  4.931E-04  6.961E-04 -5.755E-05
   1    4   15     1    15    1.1540E+00  6.3832E-04   1.1534E+00  0.000E+00  0.000E+00  0.000E+00  1.36445E+02  7.948E-01  2.763E+00  4.930E-04  6.956E-04 -5.728E-05
   1    4   16     1    16    1.1534E+00  6.3812E-04   1.1528E+00  0.000E+00  0.000E+00  0.000E+00  1.36145E+02  7.946E-01  2.763E+00  4.929E-04  6.951E-04 -5.702E-05
   1    4   17     1    17    1.1528E+00  6.3792E-04   1.1521E+00  0.000E+00  0.000E+00  0.000E+00  1.35844E+02  7.944E-01  2.763E+00  4.928E-04  6.947E-04 -5.675E-05
   1    4   18     1    18    1.1521E+00  6.3772E-04   1.1515E+00  0.000E+00  0.000E+00  0.000E+00  1.35544E+02  7.942E-01  2.763E+00  4.928E-04  6.942E-04 -5.648E-05
   1    4   19     1    19    1.1515E+00  6.3752E-04   1.1509E+00  0.000E+00  0.000E+00  0.000E+00  1.35244E+02  7.939E-01  2.762E+00  4.927E-04  6.937E-04 -5.622E-05
   1    4   20     1    20    1.1509E+00  6.3732E-04   1.1502E+00  0.000E+00  0.000E+00  0.000E+00  1.34944E+02  7.937E-01  2.762E+00  4.926E-04  6.933E-04 -5.598E-05
   1    4   21     1    21    1.1502E+00  6.3713E-04   1.1496E+00  0.000E+00  0.000E+00  0.000E+00  1.34644E+02  7.935E-01  2.762E+00  4.926E-04  6.929E-04 -5.574E-05
   1    4   22     1    22    1.1496E+00  6.3693E-04   1.1489E+00  0.000E+00  0.000E+00  0.000E+00  1.34343E+02  7.933E-01  2.762E+00  4.925E-04  6.925E-04 -5.553E-05
   1    4   23     1    23    1.1489E+00  6.3673E-04   1.1483E+00  0.000E+00  0.000E+00  0.000E+00  1.34043E+02  7.931E-01  2.761E+00  4.924E-04  6.921E-04 -5.535E-05
   1    4   24     1    24    1.1483E+00  6.3653E-04   1.1477E+00  0.000E+00  0.000E+00  0.000E+00  1.33743E+02  7.929E-01  2.761E+00  4.923E-04  6.917E-04 -5.515E-05
   1    4   25     1    25    1.1477E+00  6.3633E-04   1.1470E+00  0.000E+00  0.000E+00  0.000E+00  1.33443E+02  7.926E-01  2.761E+00  4.923E-04  6.913E-04 -5.493E-05
   1    4   26     1    26    1.1470E+00  6.3613E-04   1.1464E+00  0.000E+00  0.000E+00  0.000E+00  1.33142E+02  7.924E-01  2.761E+00  4.922E-04  6.908E-04 -5.466E-05
   1    4   27     1    27    1.1464E+00  6.3593E-04   1.1458E+00  0.000E+00  0.000E+00  0.000E+00  1.32842E+02  7.922E-01  2.760E+00  4.921E-04  7.019E-04 -6.602E-05
   1    4   28     1    28    1.1458E+00  6.3573E-04   1.1451E+00  0.000E+00  0.000E+00  0.000E+00  1.32542E+02  7.920E-01  2.760E+00  4.921E-04  7.890E-04 -1.532E-04
   1    4   29     1    29    1.1451E+00  6.3553E-04   1.1445E+00  0.000E+00  0.000E+00  0.000E+00  1.32242E+02  7.918E-01  2.760E+00  4.920E-04  8.165E-04 -1.810E-04
   1    4   30     1    30    1.1445E+00  6.3533E-04   1.1439E+00  0.000E+00  0.000E+00  0.000E+00  1.31942E+02  7.915E-01  2.760E+00  4.919E-04  8.458E-04 -2.105E-04
   1    4   31     1    31    1.1439E+00  6.3513E-04   1.1432E+00  0.000E+00  0.000E+00  0.000E+00  1.31641E+02  7.913E-01  2.759E+00  4.918E-04  8.771E-04 -2.419E-04
   1    4   32     1    32    1.1432E+00  6.3493E-04   1.1426E+00  0.000E+00  0.000E+00  0.000E+00  1.31341E+02  7.911E-01  2.759E+00  4.918E-04  9.104E-04 -2.755E-04
   1    4   33     1    33    1.1426E+00  6.3474E-04   1.1419E+00  0.000E+00  0.000E+00  0.000E+00  1.31041E+02  7.909E-01  2.759E+00  4.917E-04  9.220E-04 -2.873E-04
   1    4   34     1    34    1.1419E+00  6.3454E-04   1.1413E+00  0.000E+00  0.000E+00  0.000E+00  1.30741E+02  7.907E-01  2.758E+00  4.916E-04  9.564E-04 -3.219E-04
   1    4   35     1    35    1.1413E+00  6.3434E-04   1.1407E+00  0.000E+00  0.000E+00  0.000E+00  1.30440E+02  7.905E-01  2.758E+00  4.916E-04  9.932E-04 -3.589E-04
   1    4   36     1    36    1.1407E+00  6.3414E-04   1.1400E+00  0.000E+00  0.000E+00  0.000E+00  1.30140E+02  7.902E-01  2.758E+00  4.915E-04  1.033E-03 -3.985E-04
   1    4   37     1    37    1.1400E+00  6.3394E-04   1.1394E+00  0.000E+00  0.000E+00  0.000E+00  1.29840E+02  7.900E-01  2.758E+00  4.914E-04  1.070E-03 -4.365E-04
   1    4   38     1    38    1.1394E+00  6.3374E-04   1.1388E+00  0.000E+00  0.000E+00  0.000E+00  1.29540E+02  7.898E-01  2.757E+00  4.913E-04  1.111E-03 -4.772E-04
   1    4   39     1    39    1.1388E+00  6.3354E-04   1.1381E+00  0.000E+00  0.000E+00  0.000E+00  1.29240E+02  7.896E-01  2.757E+00  4.913E-04  1.154E-03 -5.208E-04
   1    4   40     1    40    1.1381E+00  6.3334E-04   1.1375E+00  0.000E+00  0.000E+00  0.000E+00  1.28939E+02  7.894E-01  2.757E+00  4.912E-04  1.214E-03 -5.805E-04
   1    4   41     1    41    1.1375E+00  6.3315E-04   1.1369E+00  0.000E+00  0.000E+00  0.000E+00  1.28639E+02  7.891E-01  2.757E+00  4.911E-04  1.259E-03 -6.254E-04
   1    4   42     1    42    1.1369E+00  6.3295E-04   1.1362E+00  0.000E+00  0.000E+00  0.000E+00  1.28339E+02  7.889E-01  2.756E+00  4.911E-04  1.335E-03 -7.017E-04
   1    4   43     1    43    1.1362E+00  6.3275E-04   1.1356E+00  0.000E+00  0.000E+00  0.000E+00  1.28039E+02  7.887E-01  2.756E+00  4.910E-04  1.473E-03 -8.401E-04
   1    4   44     1    44    1.1356E+00  6.3255E-04   1.1350E+00  0.000E+00  0.000E+00  0.000E+00  1.27738E+02  7.885E-01  2.756E+00  4.909E-04  1.551E-03 -9.188E-04
   1    4   45     1    45    1.1350E+00  6.3235E-04   1.1343E+00  0.000E+00  0.000E+00  0.000E+00  1.27438E+02  7.883E-01  2.756E+00  4.909E-04  1.643E-03 -1.011E-03
   1    4   46     1    46    1.1343E+00  6.3215E-04   1.1337E+00  0.000E+00  0.000E+00  0.000E+00  1.27138E+02  7.881E-01  2.755E+00  4.908E-04  1.869E-03 -1.237E-03
   1    4   47     1    47    1.1337E+00  6.3196E-04   1.1331E+00  0.000E+00  0.000E+00  0.000E+00  1.26838E+02  7.878E-01  2.755E+00  4.907E-04  1.966E-03 -1.334E-03
   1    4   48     1    48    1.1331E+00  6.3176E-04   1.1325E+00  0.000E+00  0.000E+00  0.000E+00  1.26538E+02  7.876E-01  2.755E+00  4.906E-04  2.079E-03 -1.447E-03
   1    4   49     1    49    1.1325E+00  6.3156E-04   1.1318E+00  0.000E+00  0.000E+00  0.000E+00  1.26237E+02  7.874E-01  2.755E+00  4.906E-04  2.122E-03 -1.490E-03
   1    4   50     1    50    1.1318E+00  6.3136E-04   1.1312E+00  0.000E+00  0.000E+00  0.000E+00  1.25937E+02  7.872E-01  2.754E+00  4.905E-04  2.204E-03 -1.573E-03
   1    4   51     1    51    1.1312E+00  6.3116E-04   1.1306E+00  0.000E+00  0.000E+00  0.000E+00  1.25637E+02  7.870E-01  2.754E+00  4.904E-04  2.193E-03 -1.562E-03
   1    4   52     1    52    1.1306E+00  6.3097E-04   1.1299E+00  0.000E+00  0.000E+00  0.000E+00  1.25337E+02  7.868E-01  2.754E+00  4.904E-04  2.186E-03 -1.555E-03
   1    4   53     1    53    1.1299E+00  6.3077E-04   1.1293E+00  0.000E+00  0.000E+00  0.000E+00  1.25037E+02  7.865E-01  2.754E+00  4.903E-04  2.184E-03 -1.553E-03
   1    4   54     1    54    1.1293E+00  6.3057E-04   1.1287E+00  0.000E+00  0.000E+00  0.000E+00  1.24736E+02  7.863E-01  2.753E+00  4.902E-04  2.186E-03 -1.556E-03
   1    4   55     1    55    1.1287E+00  6.3037E-04   1.1280E+00  0.000E+00  0.000E+00  0.000E+00  1.24436E+02  7.861E-01  2.753E+00  4.901E-04  2.195E-03 -1.565E-03
   1    4   56     1    56    1.1280E+00  6.3017E-04   1.1274E+00  0.000E+00  0.000E+00  0.000E+00  1.24136E+02  7.859E-01  2.753E+00  4.901E-04  2.161E-03 -1.531E-03
   1    4   57     1    57    1.1274E+00  6.2998E-04   1.1268E+00  0.000E+00  0.000E+00  0.000E+00  1.23836E+02  7.857E-01  2.752E+00  4.900E-04  2.061E-03 -1.431E-03
   1    4   58     1    58    1.1268E+00  6.2978E-04   1.1261E+00  0.000E+00  0.000E+00  0.000E+00  1.23535E+02  7.855E-01  2.752E+00  4.899E-04  1.947E-03 -1.317E-03
   1    4   59     1    59    1.1261E+00  6.2958E-04   1.1255E+00  0.000E+00  0.000E+00  0.000E+00  1.23235E+02  7.852E-01  2.752E+00  4.899E-04  1.902E-03 -1.272E-03
   1    4   60     1    60    1.1255E+00  6.2938E-04   1.1249E+00  0.000E+00  0.000E+00  0.000E+00  1.22935E+02  7.850E-01  2.752E+00  4.898E-04  1.635E-03 -1.006E-03
   1    4   61     1    61    1.1249E+00  6.2919E-04   1.1243E+00  0.000E+00  0.000E+00  0.000E+00  1.22635E+02  7.848E-01  2.751E+00  4.897E-04  1.543E-03 -9.143E-04
   1    4   62     1    62    1.1243E+00  6.2899E-04   1.1236E+00  0.000E+00  0.000E+00  0.000E+00  1.22335E+02  7.846E-01  2.751E+00  4.896E-04  1.467E-03 -8.377E-04
   1    4   63     1    63    1.1236E+00  6.2879E-04   1.1230E+00  0.000E+00  0.000E+00  0.000E+00  1.22034E+02  7.844E-01  2.751E+00  4.896E-04  1.390E-03 -7.616E-04
   1    4   64     1    64    1.1230E+00  6.2859E-04   1.1224E+00  0.000E+00  0.000E+00  0.000E+00  1.21734E+02  7.841E-01  2.751E+00  4.895E-04  1.253E-03 -6.243E-04
   1    4   65     1    65    1.1224E+00  6.2840E-04   1.1217E+00  0.000E+00  0.000E+00  0.000E+00  1.21434E+02  7.839E-01  2.750E+00  4.894E-04  1.196E-03 -5.671E-04
   1    4   66     1    66    1.1217E+00  6.2820E-04   1.1211E+00  0.000E+00  0.000E+00  0.000E+00  1.21134E+02  7.837E-01  2.750E+00  4.894E-04  1.145E-03 -5.165E-04
   1    4   67     1    67    1.1211E+00  6.2800E-04   1.1205E+00  0.000E+00  0.000E+00  0.000E+00  1.20833E+02  7.835E-01  2.750E+00  4.893E-04  1.089E-03 -4.610E-04
   1    4   68     1    68    1.1205E+00  6.2780E-04   1.1199E+00  0.000E+00  0.000E+00  0.000E+00  1.20533E+02  7.833E-01  2.750E+00  4.892E-04  1.046E-03 -4.179E-04
   1    4   69     1    69    1.1199E+00  6.2761E-04   1.1192E+00  0.000E+00  0.000E+00  0.000E+00  1.20233E+02  7.831E-01  2.749E+00  4.891E-04  1.006E-03 -3.788E-04
   1    4   70     1    70    1.1192E+00  6.2741E-04   1.1186E+00  0.000E+00  0.000E+00  0.000E+00  1.19933E+02  7.828E-01  2.749E+00  4.891E-04  9.642E-04 -3.368E-04
   1    4   71     1    71    1.1186E+00  6.2721E-04   1.1180E+00  0.000E+00  0.000E+00  0.000E+00  1.19633E+02  7.826E-01  2.749E+00  4.890E-04  9.246E-04 -2.974E-04
   1    4   72     1    72    1.1180E+00  6.2702E-04   1.1173E+00  0.000E+00  0.000E+00  0.000E+00  1.19332E+02  7.824E-01  2.749E+00  4.889E-04  8.882E-04 -2.612E-04
   1    4   73     1    73    1.1173E+00  6.2682E-04   1.1167E+00  0.000E+00  0.000E+00  0.000E+00  1.19032E+02  7.822E-01  2.748E+00  4.889E-04  8.738E-04 -2.470E-04
   1    4   74     1    74    1.1167E+00  6.2662E-04   1.1161E+00  0.000E+00  0.000E+00  0.000E+00  1.18732E+02  7.820E-01  2.748E+00  4.888E-04  8.380E-04 -2.114E-04
   1    4   75     1    75    1.1161E+00  6.2643E-04   1.1155E+00  0.000E+00  0.000E+00  0.000E+00  1.18432E+02  7.818E-01  2.748E+00  4.887E-04  8.045E-04 -1.781E-04
   1    4   76     1    76    1.1155E+00  6.2623E-04   1.1148E+00  0.000E+00  0.000E+00  0.000E+00  1.18132E+02  7.815E-01  2.748E+00  4.887E-04  7.732E-04 -1.470E-04
   1    4   77     1    77    1.1148E+00  6.2603E-04   1.1142E+00  0.000E+00  0.000E+00  0.000E+00  1.17831E+02  7.813E-01  2.747E+00  4.886E-04  7.611E-04 -1.351E-04
   1    4   78     1    78    1.1142E+00  6.2583E-04   1.1136E+00  0.000E+00  0.000E+00  0.000E+00  1.17531E+02  7.811E-01  2.747E+00  4.885E-04  7.194E-04 -9.352E-05
   1    4   79     1    79    1.1136E+00  6.2564E-04   1.1130E+00  0.000E+00  0.000E+00  0.000E+00  1.17231E+02  7.809E-01  2.747E+00  4.884E-04  7.152E-04 -8.959E-05
   1    4   80     1    80    1.1130E+00  6.2544E-04   1.1123E+00  0.000E+00  0.000E+00  0.000E+00  1.16931E+02  7.807E-01  2.747E+00  4.884E-04  7.164E-04 -9.096E-05
   1    4   81     1    81    1.1123E+00  6.2524E-04   1.1117E+00  0.000E+00  0.000E+00  0.000E+00  1.16630E+02  7.805E-01  2.746E+00  4.883E-04  6.776E-04 -5.232E-05
   1    4   82     1    82    1.1117E+00  6.2505E-04   1.1111E+00  0.000E+00  0.000E+00  0.000E+00  1.16330E+02  7.802E-01  2.746E+00  4.882E-04  6.728E-04 -4.776E-05
   1    4   83     1    83    1.1111E+00  6.2485E-04   1.1105E+00  0.000E+00  0.000E+00  0.000E+00  1.16030E+02  7.800E-01  2.746E+00  4.882E-04  6.748E-04 -4.991E-05
   1    4   84     1    84    1.1105E+00  6.2466E-04   1.1098E+00  0.000E+00  0.000E+00  0.000E+00  1.15730E+02  7.798E-01  2.745E+00  4.881E-04  6.770E-04 -5.231E-05
   1    4   85     1    85    1.1098E+00  6.2446E-04   1.1092E+00  0.000E+00  0.000E+00  0.000E+00  1.15430E+02  7.796E-01  2.745E+00  4.880E-04  6.795E-04 -5.499E-05
   1    4   86     1    86    1.1092E+00  6.2426E-04   1.1086E+00  0.000E+00  0.000E+00  0.000E+00  1.15129E+02  7.794E-01  2.745E+00  4.879E-04  6.822E-04 -5.797E-05
   1    4   87     1    87    1.1086E+00  6.2407E-04   1.1080E+00  0.000E+00  0.000E+00  0.000E+00  1.14829E+02  7.792E-01  2.745E+00  4.879E-04  6.853E-04 -6.125E-05
   1    4   88     1    88    1.1080E+00  6.2387E-04   1.1073E+00  0.000E+00  0.000E+00  0.000E+00  1.14529E+02  7.789E-01  2.744E+00  4.878E-04  6.887E-04 -6.487E-05
   1    4   89     1    89    1.1073E+00  6.2367E-04   1.1067E+00  0.000E+00  0.000E+00  0.000E+00  1.14229E+02  7.787E-01  2.744E+00  4.877E-04  6.925E-04 -6.883E-05
   1    4   90     1    90    1.1067E+00  6.2348E-04   1.1061E+00  0.000E+00  0.000E+00  0.000E+00  1.13929E+02  7.785E-01  2.744E+00  4.877E-04  6.966E-04 -7.316E-05
   1    4   91     1    91    1.1061E+00  6.2328E-04   1.1055E+00  0.000E+00  0.000E+00  0.000E+00  1.13628E+02  7.783E-01  2.744E+00  4.876E-04  7.012E-04 -7.788E-05
   1    4   92     1    92    1.1055E+00  6.2309E-04   1.1048E+00  0.000E+00  0.000E+00  0.000E+00  1.13328E+02  7.781E-01  2.743E+00  4.875E-04  7.061E-04 -8.300E-05
   1    4   93     1    93    1.1048E+00  6.2289E-04   1.1042E+00  0.000E+00  0.000E+00  0.000E+00  1.13028E+02  7.779E-01  2.743E+00  4.874E-04  7.114E-04 -8.855E-05
   1    4   94     1    94    1.1042E+00  6.2269E-04   1.1036E+00  0.000E+00  0.000E+00  0.000E+00  1.12728E+02  7.776E-01  2.743E+00  4.874E-04  7.172E-04 -9.454E-05
   1    4   95     1    95    1.1036E+00  6.2250E-04   1.1030E+00  0.000E+00  0.000E+00  0.000E+00  1.12427E+02  7.774E-01  2.743E+00  4.873E-04  7.235E-04 -1.010E-04
   1    4   96     1    96    1.1030E+00  6.2230E-04   1.1024E+00  0.000E+00  0.000E+00  0.000E+00  1.12127E+02  7.772E-01  2.742E+00  4.872E-04  7.302E-04 -1.079E-04
   1    4   97     1    97    1.1024E+00  6.2211E-04   1.1017E+00  0.000E+00  0.000E+00  0.000E+00  1.11827E+02  7.770E-01  2.742E+00  4.872E-04  7.374E-04 -1.153E-04
   1    4   98     1    98    1.1017E+00  6.2191E-04   1.1011E+00  0.000E+00  0.000E+00  0.000E+00  1.11527E+02  7.768E-01  2.742E+00  4.871E-04  7.450E-04 -1.231E-04
   1    4   99     1    99    1.1011E+00  6.2171E-04   1.1005E+00  0.000E+00  0.000E+00  0.000E+00  1.11227E+02  7.766E-01  2.742E+00  4.870E-04  7.529E-04 -1.312E-04
   1    4  100     1   100    1.1005E+00  6.2152E-04   1.0999E+00  0.000E+00  0.000E+00  0.000E+00  1.10926E+02  7.763E-01  2.741E+00  4.870E-04  7.610E-04 -1.395E-04



1
  VOLUMETRIC BUDGET FOR UNSATURATED ZONE BENEATH STREAMS AT END OF TIME STEP    30 STRESS PERIOD  24
  ------------------------------------------------------------------------------------------------

    CUMULATIVE VOLUMES             L**3    RATES FOR THIS TIME STEP         L**3/T
    ------------------                     ------------------------


          STREAM LOSS =     27217768.0000            STREAM LOSS =        6.3128E-02
    CHANGE IN STORAGE =      1260771.3750      CHANGE IN STORAGE =       -4.0746E-02
       RECHARGE TO GW =     25963778.0000         RECHARGE TO GW =            0.1039

             TOTAL IN =     27217768.0000               TOTAL IN =            0.1039

            TOTAL OUT =     27224550.0000              TOTAL OUT =            0.1039

             IN - OUT =        -6782.0000               IN - OUT =        2.2948E-06

  PERCENT DISCREPANCY =           -0.01      PERCENT DISCREPANCY =             0.00



1
  VOLUMETRIC BUDGET FOR ENTIRE MODEL AT END OF TIME STEP   30, STRESS PERIOD  24
  ------------------------------------------------------------------------------

     CUMULATIVE VOLUMES      L**3       RATES FOR THIS TIME STEP      L**3/T
     ------------------                 ------------------------

           IN:                                      IN:
           ---                                      ---
             STORAGE     =    89448688.0000               STORAGE     =           0.7854
       CONSTANT HEAD     =           0.0000         CONSTANT HEAD     =           0.0000
               WELLS     =           0.0000                 WELLS     =           0.0000
     HEAD DEP BOUNDS     =           0.0000       HEAD DEP BOUNDS     =           0.0000
      STREAM LEAKAGE     =    25963538.0000        STREAM LEAKAGE     =           0.1039

                TOTAL IN =   115412224.0000                  TOTAL IN =           0.8893

          OUT:                                     OUT:
          ----                                     ----
             STORAGE     =     3026919.7500               STORAGE     =           0.0000
       CONSTANT HEAD     =           0.0000         CONSTANT HEAD     =           0.0000
               WELLS     =    96070168.0000                 WELLS     =           0.8660
     HEAD DEP BOUNDS     =    16315191.0000       HEAD DEP BOUNDS     =       2.3277E-02
      STREAM LEAKAGE     =           0.0000        STREAM LEAKAGE     =           0.0000

               TOTAL OUT =   115412280.0000                 TOTAL OUT =           0.8893

                IN - OUT =         -56.0000                  IN - OUT =      -5.9605E-08

     PERCENT DISCREPANCY =          -0.00         PERCENT DISCREPANCY =          -0.00






         TIME SUMMARY AT END OF TIME STEP   30 IN STRESS PERIOD   24
                    SECONDS     MINUTES      HOURS       DAYS        YEARS
                    -----------------------------------------------------------
   TIME STEP LENGTH 2.49961E+05  4166.0      69.434      2.8931     7.92080E-03
 STRESS PERIOD TIME 2.59200E+06  43200.      720.00      30.000     8.21355E-02
         TOTAL TIME 6.22080E+07 1.03680E+06  17280.      720.00      1.9713    
1
1
                            STRESS PERIOD NO.   25, LENGTH =   2592000.    
                            -----------------------------------------------

                              NUMBER OF TIME STEPS =    30

                               MULTIPLIER FOR DELT =     1.100

                            INITIAL TIME STEP SIZE =   15757.40    

 REUSING NON-PARAMETER WELLS FROM LAST STRESS PERIOD

      1 WELL 

 REUSING NON-PARAMETER GHB CELLS FROM LAST STRESS PERIOD

      7 GHB CELLS



 CLASSIFICATION & COUNT OF STREAM SEGMENTS BASED ON SOURCE OF INFLOW:

                HEADWATER     DIVERSION     RECEIVES TRIBUTARY FLOW
                ---------     ---------     -----------------------
                     1              0               0



                    INPUT DATA FOR EACH STREAM SEGMENT
 ---------------------------------------------------------------------------------------------

 SEGMENT    SEG.     INFLOW   OVERLAND   STREAM    STREAM   ICALC  OUTFLOW  DIVERSION PRIORITY
    NO.    LENGTH     RATE     RUNOFF      ET       PPT.    METH.  TO SEG.  FROM SEG.    NO.

      1  2.000E+04 3.290E-01 0.000E+00 0.000E+00 0.000E+00    2        0        0        0


         STREAMBED PROPERTIES AND STREAM DIMENSIONS

 SEGMENT     BED HYD. COND.      BED THICKNESS     ELEV.-TOP OF BED     WIDTH OF STREAM     DEPTH OF STREAM    STREAM ROUGHNESS
    No.     UPPER     LOWER     UPPER     LOWER     UPPER     LOWER     UPPER     LOWER     UPPER     LOWER   CHANNEL      BANK

     1  3.500E-07 3.500E-07                                                                                 3.000E-02 4.000E-02

  EIGHT POINT CROSS-SECTION DATA FOR SEGMENTS WITH ICALC = 2
    X VALUES X VALUES START FROM LEFT SIDE LOOKING DOWNSTREAM

     SEGMENT NO.        X1        X2        X3        X4        X5        X6        X7        X8
            1      0.000E+00 2.000E+00 4.000E+00 6.000E+00 8.000E+00 1.000E+01 1.200E+01 1.400E+01

    Z VALUES ARE RELATIVE TO STREAMBED ELEVATION

     SEGMENT NO.          Z1        Z2        Z3        Z4        Z5        Z6        Z7        Z8
            1      6.000E+00 4.500E+00 3.500E+00 0.000E+00 3.000E-01 3.500E+00 4.500E+00 6.000E+00



 
 SOLVING FOR HEAD 
                                                   Max.-Head-Change                         Max.-Flux-Residual
  Residual-Control   Outer-Iter.   Inner-Iter.     Column Row Layer    Maximum-Head-Change  Column Row Layer    Maximum-Flux-Residual          L2-NORM 
          0                 1           2            73    3     1      -0.7519715698E-02      50    3    1        -0.3298336902E+00      0.4252271353E+00
          0                 2           2            74    7     1       0.7338945065E-03      50    3    1         0.1498236523E+00      0.1564753165E+00
          0                 3           1            74    1     1      -0.6492411845E-04      50    3    1        -0.1826992559E-01      0.1884688582E-01
          0                 4           1            74    1     1       0.5133149171E-05      50    3    1         0.1484526418E-02      0.1529167389E-02
          0                 5           1            74    1     1      -0.3570039807E-06      50    3    1        -0.1042903215E-03      0.1074369939E-03

    ------------------------------------------------
       NWT REQUIRED            5 OUTER ITERATIONS 
       AND A TOTAL OF          7 INNER ITERATIONS.
    ------------------------------------------------

 NO OUTPUT CONTROL FOR STRESS PERIOD   25   TIME STEP    1
 
 WELLS WITH REDUCED PUMPING FOR STRESS PERIOD    25 TIME STEP     1
   LAY   ROW   COL         APPL.Q          ACT.Q        GW-HEAD       CELL-BOT
     1     3    50  -0.928760E+00  -0.478891E+00   0.571668E-03   0.000000E+00
     1     5    55  -0.928760E+00  -0.386962E+00   0.493059E-03   0.000000E+00
 
 
 SOLVING FOR HEAD 
                                                   Max.-Head-Change                         Max.-Flux-Residual
  Residual-Control   Outer-Iter.   Inner-Iter.     Column Row Layer    Maximum-Head-Change  Column Row Layer    Maximum-Flux-Residual          L2-NORM 
          0                 1           2            73    2     1      -0.8283093353E-02      73    3    1        -0.1585523868E-02      0.3141817037E-01
          0                 2           2            74    7     1       0.8067576437E-03      73    3    1         0.1585490805E-03      0.3054847754E-02
          0                 3           1            73    1     1      -0.7127421507E-04      73    3    1        -0.1426955452E-04      0.2815311749E-03
          0                 4           1            73    1     1       0.5631209902E-05      73    5    1         0.1142991509E-05      0.2311326365E-04
          0                 5           1            73    1     1      -0.3914869745E-06      73    5    1        -0.8035118526E-07      0.1650588625E-05

    ------------------------------------------------
       NWT REQUIRED            5 OUTER ITERATIONS 
       AND A TOTAL OF          7 INNER ITERATIONS.
    ------------------------------------------------

 NO OUTPUT CONTROL FOR STRESS PERIOD   25   TIME STEP    2
 
 WELLS WITH REDUCED PUMPING FOR STRESS PERIOD    25 TIME STEP     2
   LAY   ROW   COL         APPL.Q          ACT.Q        GW-HEAD       CELL-BOT
     1     3    50  -0.929939E+00  -0.478737E+00   0.571056E-03   0.000000E+00
     1     5    55  -0.929939E+00  -0.386816E+00   0.492546E-03   0.000000E+00
 
 
 SOLVING FOR HEAD 
                                                   Max.-Head-Change                         Max.-Flux-Residual
  Residual-Control   Outer-Iter.   Inner-Iter.     Column Row Layer    Maximum-Head-Change  Column Row Layer    Maximum-Flux-Residual          L2-NORM 
          0                 1           2            74    7     1      -0.9116118760E-02      73    3    1        -0.1584608070E-02      0.3141653162E-01
          0                 2           2            74    7     1       0.8863766612E-03      73    3    1         0.1584567458E-03      0.3055686572E-02
          0                 3           1            73    1     1      -0.7819712757E-04      73    3    1        -0.1426126450E-04      0.2820433908E-03
          0                 4           1            73    1     1       0.6171352677E-05      73    3    1         0.1142327406E-05      0.2321899415E-04
          0                 5           1            73    1     1      -0.4287571385E-06      73    5    1        -0.8030451148E-07      0.1662472080E-05

    ------------------------------------------------
       NWT REQUIRED            5 OUTER ITERATIONS 
       AND A TOTAL OF          7 INNER ITERATIONS.
    ------------------------------------------------

 NO OUTPUT CONTROL FOR STRESS PERIOD   25   TIME STEP    3
 
 WELLS WITH REDUCED PUMPING FOR STRESS PERIOD    25 TIME STEP     3
   LAY   ROW   COL         APPL.Q          ACT.Q        GW-HEAD       CELL-BOT
     1     3    50  -0.930075E+00  -0.478609E+00   0.570896E-03   0.000000E+00
     1     5    55  -0.930075E+00  -0.386684E+00   0.492393E-03   0.000000E+00
 
 
 SOLVING FOR HEAD 
                                                   Max.-Head-Change                         Max.-Flux-Residual
  Residual-Control   Outer-Iter.   Inner-Iter.     Column Row Layer    Maximum-Head-Change  Column Row Layer    Maximum-Flux-Residual          L2-NORM 
          0                 1           2            74    7     1      -0.1003296084E-01      73    3    1        -0.1580572227E-02      0.3142996112E-01
          0                 2           2            73    1     1       0.9733692058E-03      73    3    1         0.1580531328E-03      0.3056339735E-02
          0                 3           1            73    1     1      -0.8571414743E-04      73    3    1        -0.1422496076E-04      0.2825181064E-03
          0                 4           1            73    1     1       0.6755681157E-05      73    3    1         0.1139419396E-05      0.2332538710E-04
          0                 5           1            73    1     1      -0.4689738890E-06       1    4    1         0.8330806267E-07      0.1674877251E-05

    ------------------------------------------------
       NWT REQUIRED            5 OUTER ITERATIONS 
       AND A TOTAL OF          7 INNER ITERATIONS.
    ------------------------------------------------

 NO OUTPUT CONTROL FOR STRESS PERIOD   25   TIME STEP    4
 
 WELLS WITH REDUCED PUMPING FOR STRESS PERIOD    25 TIME STEP     4
   LAY   ROW   COL         APPL.Q          ACT.Q        GW-HEAD       CELL-BOT
     1     3    50  -0.929951E+00  -0.478468E+00   0.570835E-03   0.000000E+00
     1     5    55  -0.929951E+00  -0.386539E+00   0.492318E-03   0.000000E+00
 
 
 SOLVING FOR HEAD 
                                                   Max.-Head-Change                         Max.-Flux-Residual
  Residual-Control   Outer-Iter.   Inner-Iter.     Column Row Layer    Maximum-Head-Change  Column Row Layer    Maximum-Flux-Residual          L2-NORM 
          0                 1           2            73    1     1      -0.1103996324E-01      72    3    1        -0.1584592112E-02      0.3143457848E-01
          0                 2           2            73    1     1       0.1068638529E-02      72    3    1         0.1584541750E-03      0.3057860331E-02
          0                 3           1            73    1     1      -0.9391476883E-04      72    3    1        -0.1426109345E-04      0.2830951064E-03
          0                 4           1            73    1     1       0.7391072009E-05      72    3    1         0.1142340112E-05      0.2344210944E-04
          0                 5           1            73    1     1      -0.5125855418E-06       1    4    1         0.8687510089E-07      0.1688374880E-05

    ------------------------------------------------
       NWT REQUIRED            5 OUTER ITERATIONS 
       AND A TOTAL OF          7 INNER ITERATIONS.
    ------------------------------------------------

 NO OUTPUT CONTROL FOR STRESS PERIOD   25   TIME STEP    5
 
 WELLS WITH REDUCED PUMPING FOR STRESS PERIOD    25 TIME STEP     5
   LAY   ROW   COL         APPL.Q          ACT.Q        GW-HEAD       CELL-BOT
     1     3    50  -0.930064E+00  -0.478315E+00   0.570665E-03   0.000000E+00
     1     5    55  -0.930064E+00  -0.386380E+00   0.492152E-03   0.000000E+00
 
 
 SOLVING FOR HEAD 
                                                   Max.-Head-Change                         Max.-Flux-Residual
  Residual-Control   Outer-Iter.   Inner-Iter.     Column Row Layer    Maximum-Head-Change  Column Row Layer    Maximum-Flux-Residual          L2-NORM 
          0                 1           2            73    1     1      -0.1214502120E-01      72    3    1        -0.1580916645E-02      0.3142983560E-01
          0                 2           2            73    1     1       0.1172492331E-02      72    3    1         0.1580858592E-03      0.3058402595E-02
          0                 3           1            73    1     1      -0.1028109051E-03      72    3    1        -0.1422797327E-04      0.2835850693E-03
          0                 4           1            73    1     1       0.8077356937E-05      72    3    1         0.1139702414E-05      0.2355352186E-04
          0                 5           1            73    1     1      -0.5595267449E-06       1    4    1         0.9039691662E-07      0.1701854194E-05

    ------------------------------------------------
       NWT REQUIRED            5 OUTER ITERATIONS 
       AND A TOTAL OF          7 INNER ITERATIONS.
    ------------------------------------------------

 NO OUTPUT CONTROL FOR STRESS PERIOD   25   TIME STEP    6
 
 WELLS WITH REDUCED PUMPING FOR STRESS PERIOD    25 TIME STEP     6
   LAY   ROW   COL         APPL.Q          ACT.Q        GW-HEAD       CELL-BOT
     1     3    50  -0.929947E+00  -0.478146E+00   0.570578E-03   0.000000E+00
     1     5    55  -0.929947E+00  -0.386206E+00   0.492051E-03   0.000000E+00
 
 
 SOLVING FOR HEAD 
                                                   Max.-Head-Change                         Max.-Flux-Residual
  Residual-Control   Outer-Iter.   Inner-Iter.     Column Row Layer    Maximum-Head-Change  Column Row Layer    Maximum-Flux-Residual          L2-NORM 
          0                 1           2            73    1     1      -0.1335583032E-01      72    3    1        -0.1575564013E-02      0.3142548867E-01
          0                 2           2            73    1     1       0.1285729548E-02      72    3    1         0.1575507029E-03      0.3057794901E-02
          0                 3           2            73    1     1      -0.1124608522E-03      72    3    1        -0.1417983878E-04      0.2839307064E-03
          0                 4           1            73    1     1       0.8818320094E-05      72    5    1         0.1135804620E-05      0.2365683487E-04
          0                 5           1            73    1     1      -0.6100007590E-06       1    4    1         0.9386595323E-07      0.1715225285E-05

    ------------------------------------------------
       NWT REQUIRED            5 OUTER ITERATIONS 
       AND A TOTAL OF          8 INNER ITERATIONS.
    ------------------------------------------------

 NO OUTPUT CONTROL FOR STRESS PERIOD   25   TIME STEP    7
 
 WELLS WITH REDUCED PUMPING FOR STRESS PERIOD    25 TIME STEP     7
   LAY   ROW   COL         APPL.Q          ACT.Q        GW-HEAD       CELL-BOT
     1     3    50  -0.930027E+00  -0.477960E+00   0.570396E-03   0.000000E+00
     1     5    55  -0.930027E+00  -0.386015E+00   0.491871E-03   0.000000E+00
 
 
 SOLVING FOR HEAD 
                                                   Max.-Head-Change                         Max.-Flux-Residual
  Residual-Control   Outer-Iter.   Inner-Iter.     Column Row Layer    Maximum-Head-Change  Column Row Layer    Maximum-Flux-Residual          L2-NORM 
          0                 1           2            73    1     1      -0.1468358318E-01      72    3    1        -0.1573128764E-02      0.3142664095E-01
          0                 2           2            73    1     1       0.1409321708E-02      72    3    1         0.1573069142E-03      0.3057203830E-02
          0                 3           2            73    1     1      -0.1229402410E-03      72    3    1        -0.1415793462E-04      0.2842854357E-03
          0                 4           1            73    1     1       0.9618899545E-05      76    4    1        -0.1140054140E-05      0.2376251753E-04
          0                 5           1            72    1     1      -0.6644947028E-06       1    4    1         0.9726182526E-07      0.1729112120E-05

    ------------------------------------------------
       NWT REQUIRED            5 OUTER ITERATIONS 
       AND A TOTAL OF          8 INNER ITERATIONS.
    ------------------------------------------------

 NO OUTPUT CONTROL FOR STRESS PERIOD   25   TIME STEP    8
 
 WELLS WITH REDUCED PUMPING FOR STRESS PERIOD    25 TIME STEP     8
   LAY   ROW   COL         APPL.Q          ACT.Q        GW-HEAD       CELL-BOT
     1     3    50  -0.930039E+00  -0.477757E+00   0.570227E-03   0.000000E+00
     1     5    55  -0.930039E+00  -0.385806E+00   0.491698E-03   0.000000E+00
 
 
 SOLVING FOR HEAD 
                                                   Max.-Head-Change                         Max.-Flux-Residual
  Residual-Control   Outer-Iter.   Inner-Iter.     Column Row Layer    Maximum-Head-Change  Column Row Layer    Maximum-Flux-Residual          L2-NORM 
          0                 1           2            73    1     1      -0.1614009535E-01      71    3    1        -0.1574384195E-02      0.3142913063E-01
          0                 2           2            73    1     1       0.1544314089E-02      71    3    1         0.1574304527E-03      0.3057155180E-02
          0                 3           2            72    1     1      -0.1343328532E-03      71    3    1        -0.1416911407E-04      0.2846622358E-03
          0                 4           1            72    1     1       0.1049012373E-04      75    4    1        -0.1179516323E-05      0.2386964057E-04
          0                 5           1            72    1     1      -0.7233806733E-06       1    4    1         0.1005768695E-06      0.1743385480E-05

    ------------------------------------------------
       NWT REQUIRED            5 OUTER ITERATIONS 
       AND A TOTAL OF          8 INNER ITERATIONS.
    ------------------------------------------------

 NO OUTPUT CONTROL FOR STRESS PERIOD   25   TIME STEP    9
 
 WELLS WITH REDUCED PUMPING FOR STRESS PERIOD    25 TIME STEP     9
   LAY   ROW   COL         APPL.Q          ACT.Q        GW-HEAD       CELL-BOT
     1     3    50  -0.929962E+00  -0.477533E+00   0.570079E-03   0.000000E+00
     1     5    55  -0.929962E+00  -0.385576E+00   0.491538E-03   0.000000E+00
 
 
 SOLVING FOR HEAD 
                                                   Max.-Head-Change                         Max.-Flux-Residual
  Residual-Control   Outer-Iter.   Inner-Iter.     Column Row Layer    Maximum-Head-Change  Column Row Layer    Maximum-Flux-Residual          L2-NORM 
          0                 1           2            73    1     1      -0.1773825538E-01      73    3    1        -0.1569920764E-02      0.3142574001E-01
          0                 2           2            73    1     1       0.1691740393E-02      73    3    1         0.1569850894E-03      0.3057220738E-02
          0                 3           2            72    1     1      -0.1467436449E-03      73    3    1        -0.1412905483E-04      0.2850239782E-03
          0                 4           1            72    1     1       0.1142894629E-04      75    4    1        -0.1217694587E-05      0.2397455635E-04
          0                 5           1            72    1     1      -0.7864440003E-06      75    4    1         0.1046535125E-06      0.1757697464E-05

    ------------------------------------------------
       NWT REQUIRED            5 OUTER ITERATIONS 
       AND A TOTAL OF          8 INNER ITERATIONS.
    ------------------------------------------------

 NO OUTPUT CONTROL FOR STRESS PERIOD   25   TIME STEP   10
 
 WELLS WITH REDUCED PUMPING FOR STRESS PERIOD    25 TIME STEP    10
   LAY   ROW   COL         APPL.Q          ACT.Q        GW-HEAD       CELL-BOT
     1     3    50  -0.930022E+00  -0.477286E+00   0.569856E-03   0.000000E+00
     1     5    55  -0.930022E+00  -0.385323E+00   0.491314E-03   0.000000E+00
 
 
 SOLVING FOR HEAD 
                                                   Max.-Head-Change                         Max.-Flux-Residual
  Residual-Control   Outer-Iter.   Inner-Iter.     Column Row Layer    Maximum-Head-Change  Column Row Layer    Maximum-Flux-Residual          L2-NORM 
          0                 1           2            73    1     1      -0.1949209362E-01      73    3    1        -0.1568521008E-02      0.3142007365E-01
          0                 2           2            73    1     1       0.1852827823E-02      73    3    1         0.1568444700E-03      0.3056653851E-02
          0                 3           2            72    1     1      -0.1602273846E-03      73    3    1        -0.1411645127E-04      0.2853498389E-03
          0                 4           1            72    1     1       0.1244326021E-04      75    4    1        -0.1254296341E-05      0.2407886582E-04
          0                 5           1            72    1     1      -0.8541842670E-06      75    4    1         0.1088267076E-06      0.1772161639E-05

    ------------------------------------------------
       NWT REQUIRED            5 OUTER ITERATIONS 
       AND A TOTAL OF          8 INNER ITERATIONS.
    ------------------------------------------------

 NO OUTPUT CONTROL FOR STRESS PERIOD   25   TIME STEP   11
 
 WELLS WITH REDUCED PUMPING FOR STRESS PERIOD    25 TIME STEP    11
   LAY   ROW   COL         APPL.Q          ACT.Q        GW-HEAD       CELL-BOT
     1     3    50  -0.930031E+00  -0.477016E+00   0.569635E-03   0.000000E+00
     1     5    55  -0.930031E+00  -0.385045E+00   0.491087E-03   0.000000E+00
 
 
 SOLVING FOR HEAD 
                                                   Max.-Head-Change                         Max.-Flux-Residual
  Residual-Control   Outer-Iter.   Inner-Iter.     Column Row Layer    Maximum-Head-Change  Column Row Layer    Maximum-Flux-Residual          L2-NORM 
          0                 1           2            73    1     1      -0.2141661858E-01      73    3    1        -0.1567098622E-02      0.3141511261E-01
          0                 2           2            73    1     1       0.2028842451E-02      73    3    1         0.1567015190E-03      0.3055847026E-02
          0                 3           2            72    7     1      -0.1748696215E-03      73    3    1        -0.1410364338E-04      0.2856397762E-03
          0                 4           1            72    1     1       0.1353798553E-04      75    4    1        -0.1289583055E-05      0.2418011752E-04
          0                 5           1            71    1     1      -0.9268286158E-06      75    4    1         0.1128930514E-06      0.1786532550E-05

    ------------------------------------------------
       NWT REQUIRED            5 OUTER ITERATIONS 
       AND A TOTAL OF          8 INNER ITERATIONS.
    ------------------------------------------------

 NO OUTPUT CONTROL FOR STRESS PERIOD   25   TIME STEP   12
 
 WELLS WITH REDUCED PUMPING FOR STRESS PERIOD    25 TIME STEP    12
   LAY   ROW   COL         APPL.Q          ACT.Q        GW-HEAD       CELL-BOT
     1     3    50  -0.929964E+00  -0.476718E+00   0.569424E-03   0.000000E+00
     1     5    55  -0.929964E+00  -0.384740E+00   0.490863E-03   0.000000E+00
 
 
 SOLVING FOR HEAD 
                                                   Max.-Head-Change                         Max.-Flux-Residual
  Residual-Control   Outer-Iter.   Inner-Iter.     Column Row Layer    Maximum-Head-Change  Column Row Layer    Maximum-Flux-Residual          L2-NORM 
          0                 1           2            73    1     1      -0.2352811804E-01      73    3    1        -0.1565592980E-02      0.3140500285E-01
          0                 2           2            73    7     1       0.2221163912E-02      73    3    1         0.1565501714E-03      0.3055140945E-02
          0                 3           2            72    7     1      -0.1907721733E-03      73    3    1        -0.1409008571E-04      0.2859402336E-03
          0                 4           1            72    1     1       0.1471953704E-04      75    4    1        -0.1323431295E-05      0.2428123988E-04
          0                 5           1            71    1     1      -0.1005014373E-05      75    4    1         0.1168364925E-06      0.1800885708E-05
          0                 6           1            71    1     1       0.5957020952E-07       2    4    1        -0.8126885831E-08      0.1137686127E-06

    ------------------------------------------------
       NWT REQUIRED            6 OUTER ITERATIONS 
       AND A TOTAL OF          9 INNER ITERATIONS.
    ------------------------------------------------

 NO OUTPUT CONTROL FOR STRESS PERIOD   25   TIME STEP   13
 
 WELLS WITH REDUCED PUMPING FOR STRESS PERIOD    25 TIME STEP    13
   LAY   ROW   COL         APPL.Q          ACT.Q        GW-HEAD       CELL-BOT
     1     3    50  -0.929972E+00  -0.476388E+00   0.569156E-03   0.000000E+00
     1     5    55  -0.929972E+00  -0.384402E+00   0.490589E-03   0.000000E+00
 
 
 SOLVING FOR HEAD 
                                                   Max.-Head-Change                         Max.-Flux-Residual
  Residual-Control   Outer-Iter.   Inner-Iter.     Column Row Layer    Maximum-Head-Change  Column Row Layer    Maximum-Flux-Residual          L2-NORM 
          0                 1           2            73    1     1      -0.2584601925E-01      73    2    1        -0.1563966954E-02      0.3139517685E-01
          0                 2           2            73    7     1       0.2431686041E-02      73    6    1         0.1563912958E-03      0.3053647867E-02
          0                 3           2            72    7     1      -0.2080641998E-03      73    6    1        -0.1407567819E-04      0.2860832003E-03
          0                 4           1            72    1     1       0.1599621478E-04      74    4    1        -0.1354722663E-05      0.2436615967E-04
          0                 5           1            71    1     1      -0.1088822233E-05      74    4    1         0.1205830689E-06      0.1814057583E-05
          0                 6           1            71    1     1       0.6436290398E-07       2    4    1        -0.8378027161E-08      0.1150560433E-06

    ------------------------------------------------
       NWT REQUIRED            6 OUTER ITERATIONS 
       AND A TOTAL OF          9 INNER ITERATIONS.
    ------------------------------------------------

 NO OUTPUT CONTROL FOR STRESS PERIOD   25   TIME STEP   14
 
 WELLS WITH REDUCED PUMPING FOR STRESS PERIOD    25 TIME STEP    14
   LAY   ROW   COL         APPL.Q          ACT.Q        GW-HEAD       CELL-BOT
     1     3    50  -0.930020E+00  -0.476024E+00   0.568844E-03   0.000000E+00
     1     5    55  -0.930020E+00  -0.384030E+00   0.490272E-03   0.000000E+00
 
 
 SOLVING FOR HEAD 
                                                   Max.-Head-Change                         Max.-Flux-Residual
  Residual-Control   Outer-Iter.   Inner-Iter.     Column Row Layer    Maximum-Head-Change  Column Row Layer    Maximum-Flux-Residual          L2-NORM 
          0                 1           2            73    1     1      -0.2839081857E-01      73    2    1        -0.1562311295E-02      0.3138008261E-01
          0                 2           2            73    7     1       0.2661761428E-02      73    1    1         0.1562256491E-03      0.3052469547E-02
          0                 3           2            72    7     1      -0.2268596106E-03      73    6    1        -0.1406077628E-04      0.2863099892E-03
          0                 4           1            72    1     1       0.1737517362E-04      74    4    1        -0.1386915274E-05      0.2445882185E-04
          0                 5           1            71    1     1      -0.1178534675E-05      74    4    1         0.1244497518E-06      0.1827607831E-05
          0                 6           1            71    1     1       0.6945179864E-07      74    4    1        -0.8682571107E-08      0.1163616512E-06

    ------------------------------------------------
       NWT REQUIRED            6 OUTER ITERATIONS 
       AND A TOTAL OF          9 INNER ITERATIONS.
    ------------------------------------------------

 NO OUTPUT CONTROL FOR STRESS PERIOD   25   TIME STEP   15
 
 WELLS WITH REDUCED PUMPING FOR STRESS PERIOD    25 TIME STEP    15
   LAY   ROW   COL         APPL.Q          ACT.Q        GW-HEAD       CELL-BOT
     1     3    50  -0.930020E+00  -0.475622E+00   0.568520E-03   0.000000E+00
     1     5    55  -0.930020E+00  -0.383619E+00   0.489941E-03   0.000000E+00
 
 
 SOLVING FOR HEAD 
                                                   Max.-Head-Change                         Max.-Flux-Residual
  Residual-Control   Outer-Iter.   Inner-Iter.     Column Row Layer    Maximum-Head-Change  Column Row Layer    Maximum-Flux-Residual          L2-NORM 
          0                 1           2            73    7     1      -0.3118177325E-01      73    3    1        -0.1560614993E-02      0.3137154779E-01
          0                 2           2            73    7     1       0.2913328473E-02      73    6    1         0.1560536856E-03      0.3050218647E-02
          0                 3           2            72    7     1      -0.2473068244E-03      73    6    1        -0.1404542122E-04      0.2863088249E-03
          0                 4           1            72    1     1       0.1886605236E-04      74    4    1        -0.1416237748E-05      0.2452740202E-04
          0                 5           1            71    1     1      -0.1274664434E-05      74    4    1         0.1280865511E-06      0.1839212821E-05
          0                 6           1            71    1     1       0.7485645895E-07      74    4    1        -0.9002928181E-08      0.1175534029E-06

    ------------------------------------------------
       NWT REQUIRED            6 OUTER ITERATIONS 
       AND A TOTAL OF          9 INNER ITERATIONS.
    ------------------------------------------------

 NO OUTPUT CONTROL FOR STRESS PERIOD   25   TIME STEP   16
 
 WELLS WITH REDUCED PUMPING FOR STRESS PERIOD    25 TIME STEP    16
   LAY   ROW   COL         APPL.Q          ACT.Q        GW-HEAD       CELL-BOT
     1     3    50  -0.930020E+00  -0.475176E+00   0.568163E-03   0.000000E+00
     1     5    55  -0.930020E+00  -0.383166E+00   0.489575E-03   0.000000E+00
 
 
 SOLVING FOR HEAD 
                                                   Max.-Head-Change                         Max.-Flux-Residual
  Residual-Control   Outer-Iter.   Inner-Iter.     Column Row Layer    Maximum-Head-Change  Column Row Layer    Maximum-Flux-Residual          L2-NORM 
          0                 1           2            73    7     1      -0.3424000298E-01      73    2    1        -0.1558648793E-02      0.3135698958E-01
          0                 2           2            73    7     1       0.3188076501E-02      73    1    1         0.1558584936E-03      0.3049012946E-02
          0                 3           2            72    7     1      -0.2695453004E-03      73    1    1        -0.1402780495E-04      0.2864635700E-03
          0                 4           1            72    1     1       0.2047756884E-04      74    4    1        -0.1444027966E-05      0.2460792720E-04
          0                 5           1            71    1     1      -0.1377644270E-05      74    4    1         0.1315615439E-06      0.1851209777E-05
          0                 6           1            71    1     1       0.8059091680E-07      74    4    1        -0.9312469018E-08      0.1187459351E-06

    ------------------------------------------------
       NWT REQUIRED            6 OUTER ITERATIONS 
       AND A TOTAL OF          9 INNER ITERATIONS.
    ------------------------------------------------

 NO OUTPUT CONTROL FOR STRESS PERIOD   25   TIME STEP   17
 
 WELLS WITH REDUCED PUMPING FOR STRESS PERIOD    25 TIME STEP    17
   LAY   ROW   COL         APPL.Q          ACT.Q        GW-HEAD       CELL-BOT
     1     3    50  -0.929989E+00  -0.474684E+00   0.567780E-03   0.000000E+00
     1     5    55  -0.929989E+00  -0.382661E+00   0.489178E-03   0.000000E+00
 
 
 SOLVING FOR HEAD 
                                                   Max.-Head-Change                         Max.-Flux-Residual
  Residual-Control   Outer-Iter.   Inner-Iter.     Column Row Layer    Maximum-Head-Change  Column Row Layer    Maximum-Flux-Residual          L2-NORM 
          0                 1           2            73    7     1      -0.3760704930E-01      73    1    1        -0.1556376586E-02      0.3133840587E-01
          0                 2           2            74    7     1       0.3492067745E-02      73    1    1         0.1556313106E-03      0.3046966054E-02
          0                 3           2            74    7     1      -0.2940717636E-03      73    1    1        -0.1400743489E-04      0.2865289650E-03
          0                 4           1            72    7     1       0.2222755799E-04      73    4    1        -0.1467579478E-05      0.2467911493E-04
          0                 5           1            71    1     1      -0.1488077892E-05      73    4    1         0.1334800768E-06      0.1861997466E-05
          0                 6           1            71    1     1       0.8667607435E-07      72    4    1        -0.9458837269E-08      0.1198371221E-06

    ------------------------------------------------
       NWT REQUIRED            6 OUTER ITERATIONS 
       AND A TOTAL OF          9 INNER ITERATIONS.
    ------------------------------------------------

 NO OUTPUT CONTROL FOR STRESS PERIOD   25   TIME STEP   18
 
 WELLS WITH REDUCED PUMPING FOR STRESS PERIOD    25 TIME STEP    18
   LAY   ROW   COL         APPL.Q          ACT.Q        GW-HEAD       CELL-BOT
     1     3    50  -0.929984E+00  -0.474116E+00   0.567326E-03   0.000000E+00
     1     5    55  -0.929984E+00  -0.382086E+00   0.488716E-03   0.000000E+00
 
 
 SOLVING FOR HEAD 
                                                   Max.-Head-Change                         Max.-Flux-Residual
  Residual-Control   Outer-Iter.   Inner-Iter.     Column Row Layer    Maximum-Head-Change  Column Row Layer    Maximum-Flux-Residual          L2-NORM 
          0                 1           2            73    7     1      -0.4129316242E-01      74    3    1        -0.1557307779E-02      0.3131719657E-01
          0                 2           2            74    7     1       0.3822496664E-02      74    3    1         0.1557156232E-03      0.3044481927E-02
          0                 3           2            74    7     1      -0.3206975408E-03      74    3    1        -0.1401552400E-04      0.2865305047E-03
          0                 4           1            74    7     1       0.2412563714E-04      73    4    1        -0.1492467048E-05      0.2474187932E-04
          0                 5           1            71    1     1      -0.1606444038E-05      72    4    1         0.1363627806E-06      0.1871448434E-05
          0                 6           1            71    1     1       0.9312818141E-07      72    4    1        -0.9751515151E-08      0.1208071952E-06

    ------------------------------------------------
       NWT REQUIRED            6 OUTER ITERATIONS 
       AND A TOTAL OF          9 INNER ITERATIONS.
    ------------------------------------------------

 NO OUTPUT CONTROL FOR STRESS PERIOD   25   TIME STEP   19
 
 WELLS WITH REDUCED PUMPING FOR STRESS PERIOD    25 TIME STEP    19
   LAY   ROW   COL         APPL.Q          ACT.Q        GW-HEAD       CELL-BOT
     1     3    50  -0.929980E+00  -0.473462E+00   0.566802E-03   0.000000E+00
     1     5    55  -0.929980E+00  -0.381429E+00   0.488186E-03   0.000000E+00
 
 
 SOLVING FOR HEAD 
                                                   Max.-Head-Change                         Max.-Flux-Residual
  Residual-Control   Outer-Iter.   Inner-Iter.     Column Row Layer    Maximum-Head-Change  Column Row Layer    Maximum-Flux-Residual          L2-NORM 
          0                 1           2            73    7     1      -0.4531879866E-01      74    3    1        -0.1553694179E-02      0.3128242517E-01
          0                 2           2            74    7     1       0.4181116275E-02      74    3    1         0.1553524247E-03      0.3041715744E-02
          0                 3           2            74    7     1      -0.3494640009E-03      74    3    1        -0.1398297136E-04      0.2864633451E-03
          0                 4           1            74    7     1       0.2617580358E-04      73    4    1        -0.1515046801E-05      0.2479294927E-04
          0                 5           1            71    1     1      -0.1733283566E-05      72    4    1         0.1393866551E-06      0.1879053327E-05
          0                 6           1            71    1     1       0.9996165070E-07      72    4    1        -0.1003016159E-07      0.1216123924E-06

    ------------------------------------------------
       NWT REQUIRED            6 OUTER ITERATIONS 
       AND A TOTAL OF          9 INNER ITERATIONS.
    ------------------------------------------------

 NO OUTPUT CONTROL FOR STRESS PERIOD   25   TIME STEP   20
 
 WELLS WITH REDUCED PUMPING FOR STRESS PERIOD    25 TIME STEP    20
   LAY   ROW   COL         APPL.Q          ACT.Q        GW-HEAD       CELL-BOT
     1     3    50  -0.930011E+00  -0.472743E+00   0.566212E-03   0.000000E+00
     1     5    55  -0.930011E+00  -0.380700E+00   0.487588E-03   0.000000E+00
 
 
 SOLVING FOR HEAD 
                                                   Max.-Head-Change                         Max.-Flux-Residual
  Residual-Control   Outer-Iter.   Inner-Iter.     Column Row Layer    Maximum-Head-Change  Column Row Layer    Maximum-Flux-Residual          L2-NORM 
          0                 1           2            73    7     1      -0.4977641841E-01      73    3    1        -0.1548978663E-02      0.3124594860E-01
          0                 2           2            73    7     1       0.4581434673E-02      73    2    1         0.1548836757E-03      0.3037501168E-02
          0                 3           2            73    7     1      -0.3816862152E-03      73    3    1        -0.1394082019E-04      0.2862511189E-03
          0                 4           1            73    7     1       0.2848443162E-04      72    4    1        -0.1530907161E-05      0.2483170940E-04
          0                 5           1            73    7     1      -0.1873811765E-05      72    4    1         0.1426909559E-06      0.1884815567E-05
          0                 6           1            71    7     1       0.1072477393E-06      72    4    1        -0.1033138552E-07      0.1222430407E-06

    ------------------------------------------------
       NWT REQUIRED            6 OUTER ITERATIONS 
       AND A TOTAL OF          9 INNER ITERATIONS.
    ------------------------------------------------

 NO OUTPUT CONTROL FOR STRESS PERIOD   25   TIME STEP   21
 
 WELLS WITH REDUCED PUMPING FOR STRESS PERIOD    25 TIME STEP    21
   LAY   ROW   COL         APPL.Q          ACT.Q        GW-HEAD       CELL-BOT
     1     3    50  -0.930000E+00  -0.471915E+00   0.565552E-03   0.000000E+00
     1     5    55  -0.930000E+00  -0.379881E+00   0.486930E-03   0.000000E+00
 
 
 SOLVING FOR HEAD 
                                                   Max.-Head-Change                         Max.-Flux-Residual
  Residual-Control   Outer-Iter.   Inner-Iter.     Column Row Layer    Maximum-Head-Change  Column Row Layer    Maximum-Flux-Residual          L2-NORM 
          0                 1           2            73    7     1      -0.5460792212E-01      73    3    1        -0.1549844203E-02      0.3120080457E-01
          0                 2           2            73    7     1       0.5012142341E-02      73    3    1         0.1549626957E-03      0.3033263520E-02
          0                 3           2            73    7     1      -0.4160902759E-03      73    3    1        -0.1394815029E-04      0.2860032171E-03
          0                 4           1            73    7     1       0.3091853957E-04      72    4    1        -0.1550092504E-05      0.2486131311E-04
          0                 5           1            73    7     1      -0.2021918861E-05      72    4    1         0.1453143330E-06      0.1888413061E-05
          0                 6           1            73    7     1       0.1149349946E-06      72    4    1        -0.1058168841E-07      0.1226571502E-06

    ------------------------------------------------
       NWT REQUIRED            6 OUTER ITERATIONS 
       AND A TOTAL OF          9 INNER ITERATIONS.
    ------------------------------------------------

 NO OUTPUT CONTROL FOR STRESS PERIOD   25   TIME STEP   22
 
 WELLS WITH REDUCED PUMPING FOR STRESS PERIOD    25 TIME STEP    22
   LAY   ROW   COL         APPL.Q          ACT.Q        GW-HEAD       CELL-BOT
     1     3    50  -0.929994E+00  -0.471021E+00   0.564837E-03   0.000000E+00
     1     5    55  -0.929994E+00  -0.378965E+00   0.486192E-03   0.000000E+00
 
 
 SOLVING FOR HEAD 
                                                   Max.-Head-Change                         Max.-Flux-Residual
  Residual-Control   Outer-Iter.   Inner-Iter.     Column Row Layer    Maximum-Head-Change  Column Row Layer    Maximum-Flux-Residual          L2-NORM 
          0                 1           3            73    1     1      -0.5989090763E-01      73    3    1        -0.1544202592E-02      0.3114924332E-01
          0                 2           2            73    7     1       0.5484366516E-02      73    3    1         0.1543976807E-03      0.3027871216E-02
          0                 3           2            73    7     1      -0.4538394709E-03      73    3    1        -0.1389743121E-04      0.2856177826E-03
          0                 4           1            73    7     1       0.3358353845E-04      71    4    1        -0.1557673386E-05      0.2487651756E-04
          0                 5           1            73    7     1      -0.2182063825E-05      70    4    1         0.1446420779E-06      0.1889344657E-05
          0                 6           1            71    7     1       0.1232255159E-06      74    4    1        -0.1063006927E-07      0.1228128196E-06

    ------------------------------------------------
       NWT REQUIRED            6 OUTER ITERATIONS 
       AND A TOTAL OF         10 INNER ITERATIONS.
    ------------------------------------------------

 NO OUTPUT CONTROL FOR STRESS PERIOD   25   TIME STEP   23
 
 WELLS WITH REDUCED PUMPING FOR STRESS PERIOD    25 TIME STEP    23
   LAY   ROW   COL         APPL.Q          ACT.Q        GW-HEAD       CELL-BOT
     1     3    50  -0.929988E+00  -0.470066E+00   0.564073E-03   0.000000E+00
     1     5    55  -0.929988E+00  -0.377998E+00   0.485412E-03   0.000000E+00
 
 
 SOLVING FOR HEAD 
                                                   Max.-Head-Change                         Max.-Flux-Residual
  Residual-Control   Outer-Iter.   Inner-Iter.     Column Row Layer    Maximum-Head-Change  Column Row Layer    Maximum-Flux-Residual          L2-NORM 
          0                 1           3            73    1     1      -0.6566980502E-01      73    3    1        -0.1539247309E-02      0.3108929056E-01
          0                 2           2            73    7     1       0.5998800860E-02      73    3    1         0.1539007570E-03      0.3022057281E-02
          0                 3           2            73    7     1      -0.4946514090E-03      73    5    1        -0.1385286472E-04      0.2852238760E-03
          0                 4           1            73    7     1       0.3644127050E-04      71    4    1        -0.1574318858E-05      0.2488996978E-04
          0                 5           1            73    7     1      -0.2350855416E-05      70    4    1         0.1469289490E-06      0.1888356125E-05
          0                 6           1            71    7     1       0.1318192121E-06      74    4    1        -0.1083610712E-07      0.1227454873E-06

    ------------------------------------------------
       NWT REQUIRED            6 OUTER ITERATIONS 
       AND A TOTAL OF         10 INNER ITERATIONS.
    ------------------------------------------------

 NO OUTPUT CONTROL FOR STRESS PERIOD   25   TIME STEP   24
 
 WELLS WITH REDUCED PUMPING FOR STRESS PERIOD    25 TIME STEP    24
   LAY   ROW   COL         APPL.Q          ACT.Q        GW-HEAD       CELL-BOT
     1     3    50  -0.929996E+00  -0.468993E+00   0.563208E-03   0.000000E+00
     1     5    55  -0.929996E+00  -0.376921E+00   0.484538E-03   0.000000E+00
 
 
 SOLVING FOR HEAD 
                                                   Max.-Head-Change                         Max.-Flux-Residual
  Residual-Control   Outer-Iter.   Inner-Iter.     Column Row Layer    Maximum-Head-Change  Column Row Layer    Maximum-Flux-Residual          L2-NORM 
          0                 1           3            73    1     1      -0.7198453297E-01      73    3    1        -0.1534536906E-02      0.3101953433E-01
          0                 2           2            73    7     1       0.6560923752E-02      73    3    1         0.1534272724E-03      0.3015064744E-02
          0                 3           2            73    7     1      -0.5394679753E-03      73    3    1        -0.1381042645E-04      0.2846729248E-03
          0                 4           1            73    7     1       0.3958513367E-04      70    4    1        -0.1574150637E-05      0.2488353445E-04
          0                 5           1            73    7     1      -0.2534351573E-05      70    4    1         0.1493985220E-06      0.1884204794E-05
          0                 6           1            71    7     1       0.1413493324E-06      74    4    1        -0.1105076741E-07      0.1224032462E-06

    ------------------------------------------------
       NWT REQUIRED            6 OUTER ITERATIONS 
       AND A TOTAL OF         10 INNER ITERATIONS.
    ------------------------------------------------

 NO OUTPUT CONTROL FOR STRESS PERIOD   25   TIME STEP   25
 
 WELLS WITH REDUCED PUMPING FOR STRESS PERIOD    25 TIME STEP    25
   LAY   ROW   COL         APPL.Q          ACT.Q        GW-HEAD       CELL-BOT
     1     3    50  -0.930010E+00  -0.467840E+00   0.562276E-03   0.000000E+00
     1     5    55  -0.930010E+00  -0.375750E+00   0.483586E-03   0.000000E+00
 
 
 SOLVING FOR HEAD 
                                                   Max.-Head-Change                         Max.-Flux-Residual
  Residual-Control   Outer-Iter.   Inner-Iter.     Column Row Layer    Maximum-Head-Change  Column Row Layer    Maximum-Flux-Residual          L2-NORM 
          0                 1           3            73    1     1      -0.7886537663E-01      73    3    1        -0.1529272076E-02      0.3093651046E-01
          0                 2           2            73    7     1       0.7172533622E-02      73    6    1         0.1528986617E-03      0.3007203413E-02
          0                 3           2            73    7     1      -0.5878637378E-03      73    3    1        -0.1376298272E-04      0.2840267587E-03
          0                 4           1            73    7     1       0.4295154676E-04      70    4    1        -0.1587168683E-05      0.2486562141E-04
          0                 5           1            73    7     1      -0.2725635587E-05      70    4    1         0.1512979448E-06      0.1876212627E-05
          0                 6           1            71    7     1       0.1508033265E-06      70    4    1        -0.1120446491E-07      0.1216788911E-06

    ------------------------------------------------
       NWT REQUIRED            6 OUTER ITERATIONS 
       AND A TOTAL OF         10 INNER ITERATIONS.
    ------------------------------------------------

 NO OUTPUT CONTROL FOR STRESS PERIOD   25   TIME STEP   26
 
 WELLS WITH REDUCED PUMPING FOR STRESS PERIOD    25 TIME STEP    26
   LAY   ROW   COL         APPL.Q          ACT.Q        GW-HEAD       CELL-BOT
     1     3    50  -0.930006E+00  -0.466493E+00   0.561196E-03   0.000000E+00
     1     5    55  -0.930006E+00  -0.374398E+00   0.482493E-03   0.000000E+00
 
 
 SOLVING FOR HEAD 
                                                   Max.-Head-Change                         Max.-Flux-Residual
  Residual-Control   Outer-Iter.   Inner-Iter.     Column Row Layer    Maximum-Head-Change  Column Row Layer    Maximum-Flux-Residual          L2-NORM 
          0                 1           3            73    7     1      -0.8640747913E-01      73    6    1        -0.1523308304E-02      0.3083781818E-01
          0                 2           2            74    7     1       0.7848395606E-02      73    1    1         0.1523075698E-03      0.2997905701E-02
          0                 3           2            74    7     1      -0.6423473897E-03      73    1    1        -0.1370953230E-04      0.2832467466E-03
          0                 4           1            74    7     1       0.4676918038E-04      69    4    1        -0.1578704143E-05      0.2483308427E-04
          0                 5           1            73    7     1      -0.2936148684E-05      72    4    1         0.1500903277E-06      0.1864042056E-05
          0                 6           1            71    7     1       0.1609550759E-06      72    4    1        -0.1123560622E-07      0.1205621819E-06

    ------------------------------------------------
       NWT REQUIRED            6 OUTER ITERATIONS 
       AND A TOTAL OF         10 INNER ITERATIONS.
    ------------------------------------------------

 NO OUTPUT CONTROL FOR STRESS PERIOD   25   TIME STEP   27
 
 WELLS WITH REDUCED PUMPING FOR STRESS PERIOD    25 TIME STEP    27
   LAY   ROW   COL         APPL.Q          ACT.Q        GW-HEAD       CELL-BOT
     1     3    50  -0.930002E+00  -0.465110E+00   0.560088E-03   0.000000E+00
     1     5    55  -0.930002E+00  -0.373002E+00   0.481365E-03   0.000000E+00
 
 
 SOLVING FOR HEAD 
                                                   Max.-Head-Change                         Max.-Flux-Residual
  Residual-Control   Outer-Iter.   Inner-Iter.     Column Row Layer    Maximum-Head-Change  Column Row Layer    Maximum-Flux-Residual          L2-NORM 
          0                 1           3            73    7     1      -0.9458712995E-01      74    3    1        -0.1517898559E-02      0.3074144054E-01
          0                 2           2            73    7     1       0.8583439307E-02      74    5    1         0.1517529561E-03      0.2986947381E-02
          0                 3           2            73    7     1      -0.7008771227E-03      74    3    1        -0.1366173236E-04      0.2820604363E-03
          0                 4           1            73    7     1       0.5087687531E-04      69    4    1        -0.1570083576E-05      0.2474803071E-04
          0                 5           1            73    7     1      -0.3163105579E-05      72    4    1         0.1517442225E-06      0.1844456665E-05
          0                 6           1            71    7     1       0.1711893212E-06      72    4    1        -0.1139411765E-07      0.1188995277E-06

    ------------------------------------------------
       NWT REQUIRED            6 OUTER ITERATIONS 
       AND A TOTAL OF         10 INNER ITERATIONS.
    ------------------------------------------------

 NO OUTPUT CONTROL FOR STRESS PERIOD   25   TIME STEP   28
 
 WELLS WITH REDUCED PUMPING FOR STRESS PERIOD    25 TIME STEP    28
   LAY   ROW   COL         APPL.Q          ACT.Q        GW-HEAD       CELL-BOT
     1     3    50  -0.930002E+00  -0.463536E+00   0.558824E-03   0.000000E+00
     1     5    55  -0.930002E+00  -0.371431E+00   0.480092E-03   0.000000E+00
 
 
 SOLVING FOR HEAD 
                                                   Max.-Head-Change                         Max.-Flux-Residual
  Residual-Control   Outer-Iter.   Inner-Iter.     Column Row Layer    Maximum-Head-Change  Column Row Layer    Maximum-Flux-Residual          L2-NORM 
          0                 1           3            73    7     1      -0.1035352603E+00      73    3    1        -0.1510393987E-02      0.3067825500E-01
          0                 2           2            73    7     1       0.9376457703E-02      73    3    1         0.1510044572E-03      0.2975936453E-02
          0                 3           2            73    7     1      -0.7635477072E-03      73    3    1        -0.1359320752E-04      0.2805352209E-03
          0                 4           1            73    7     1       0.5520162048E-04      68    4    1        -0.1571723953E-05      0.2461176817E-04
          0                 5           1            73    7     1      -0.3388792418E-05      72    4    1         0.1528624090E-06      0.1816699800E-05
          0                 6           1            71    7     1       0.1812137084E-06      72    4    1        -0.1149940765E-07      0.1166310080E-06

    ------------------------------------------------
       NWT REQUIRED            6 OUTER ITERATIONS 
       AND A TOTAL OF         10 INNER ITERATIONS.
    ------------------------------------------------

 NO OUTPUT CONTROL FOR STRESS PERIOD   25   TIME STEP   29
 
 WELLS WITH REDUCED PUMPING FOR STRESS PERIOD    25 TIME STEP    29
   LAY   ROW   COL         APPL.Q          ACT.Q        GW-HEAD       CELL-BOT
     1     3    50  -0.929993E+00  -0.461885E+00   0.557502E-03   0.000000E+00
     1     5    55  -0.929993E+00  -0.369768E+00   0.478746E-03   0.000000E+00
 
 
 SOLVING FOR HEAD 
                                                   Max.-Head-Change                         Max.-Flux-Residual
  Residual-Control   Outer-Iter.   Inner-Iter.     Column Row Layer    Maximum-Head-Change  Column Row Layer    Maximum-Flux-Residual          L2-NORM 
          0                 1           3            73    7     1      -0.1131809090E+00      73    3    1        -0.1504457738E-02      0.3064809703E-01
          0                 2           3            73    7     1       0.1024067212E-01      73    3    1         0.1504001843E-03      0.2969967959E-02
          0                 3           2            73    7     1      -0.8325962066E-03      73    3    1        -0.1353909635E-04      0.2795243898E-03
          0                 4           1            73    1     1       0.5997683204E-04      71    4    1        -0.1562937232E-05      0.2450471484E-04
          0                 5           1            71    7     1      -0.3624484789E-05      70    4    1         0.1508861036E-06      0.1786238264E-05
          0                 6           1            69    7     1       0.1922937045E-06      70    4    1        -0.1137074079E-07      0.1141373917E-06

    ------------------------------------------------
       NWT REQUIRED            6 OUTER ITERATIONS 
       AND A TOTAL OF         11 INNER ITERATIONS.
    ------------------------------------------------

 OUTPUT CONTROL FOR STRESS PERIOD   25   TIME STEP   30
    PRINT HEAD FOR ALL LAYERS
    SAVE HEAD FOR ALL LAYERS
    PRINT BUDGET
    SAVE BUDGET
 
 WELLS WITH REDUCED PUMPING FOR STRESS PERIOD    25 TIME STEP    30
   LAY   ROW   COL         APPL.Q          ACT.Q        GW-HEAD       CELL-BOT
     1     3    50  -0.929995E+00  -0.460047E+00   0.556025E-03   0.000000E+00
     1     5    55  -0.929995E+00  -0.367913E+00   0.477241E-03   0.000000E+00

            WELLS   PERIOD   25   STEP  30
 WELL      1   LAYER   1   ROW     3   COL    50   RATE   -0.460047    
 WELL      2   LAYER   1   ROW     5   COL    55   RATE   -0.367913    
 

  HEAD DEP BOUNDS   PERIOD   25   STEP    30
 BOUNDARY      1   LAYER   1   ROW     1   COL   100   RATE   -1.073724E-03
 BOUNDARY      2   LAYER   1   ROW     2   COL   100   RATE   -1.085131E-03
 BOUNDARY      3   LAYER   1   ROW     3   COL   100   RATE   -1.112172E-03
 BOUNDARY      4   LAYER   1   ROW     4   COL   100   RATE   -1.226402E-03
 BOUNDARY      5   LAYER   1   ROW     5   COL   100   RATE   -1.112172E-03
 BOUNDARY      6   LAYER   1   ROW     6   COL   100   RATE   -1.085131E-03
 BOUNDARY      7   LAYER   1   ROW     7   COL   100   RATE   -1.073724E-03



 STREAM LISTING     PERIOD     25   STEP       30

 LAYER ROW COL. STREAM  RCH.   FLOW INTO    STREAM     FLOW OUT OF   OVRLND.    DIRECT     STREAM      STREAM      STREAM     STREAM  STREAMBED   FLOW TO   CHNG. UNSAT. 
                SEG.NO.  NO.   STRM. RCH.    LOSS       STRM. RCH.   RUNOFF     PRECIP       ET         HEAD        DEPTH      WIDTH  CONDCTNC.   WAT. TAB.

   1    4    1     1     1    3.2900E-01  3.5874E-04   3.2864E-01  0.000E+00  0.000E+00  0.000E+00  1.40296E+02  4.461E-01  2.346E+00  3.792E-04  5.587E-04 -2.000E-04
   1    4    2     1     2    3.2864E-01  3.5860E-04   3.2828E-01  0.000E+00  0.000E+00  0.000E+00  1.39996E+02  4.459E-01  2.346E+00  3.791E-04  5.536E-04 -1.950E-04
   1    4    3     1     3    3.2828E-01  3.5846E-04   3.2792E-01  0.000E+00  0.000E+00  0.000E+00  1.39696E+02  4.457E-01  2.346E+00  3.790E-04  5.493E-04 -1.908E-04
   1    4    4     1     4    3.2792E-01  3.5832E-04   3.2757E-01  0.000E+00  0.000E+00  0.000E+00  1.39395E+02  4.455E-01  2.345E+00  3.790E-04  5.457E-04 -1.874E-04
   1    4    5     1     5    3.2757E-01  3.5818E-04   3.2721E-01  0.000E+00  0.000E+00  0.000E+00  1.39095E+02  4.453E-01  2.345E+00  3.789E-04  5.430E-04 -1.849E-04
   1    4    6     1     6    3.2721E-01  3.5804E-04   3.2685E-01  0.000E+00  0.000E+00  0.000E+00  1.38795E+02  4.451E-01  2.345E+00  3.789E-04  5.412E-04 -1.831E-04
   1    4    7     1     7    3.2685E-01  3.5790E-04   3.2649E-01  0.000E+00  0.000E+00  0.000E+00  1.38495E+02  4.449E-01  2.345E+00  3.788E-04  5.401E-04 -1.822E-04
   1    4    8     1     8    3.2649E-01  3.5776E-04   3.2613E-01  0.000E+00  0.000E+00  0.000E+00  1.38195E+02  4.447E-01  2.345E+00  3.787E-04  5.399E-04 -1.821E-04
   1    4    9     1     9    3.2613E-01  3.5763E-04   3.2578E-01  0.000E+00  0.000E+00  0.000E+00  1.37894E+02  4.445E-01  2.344E+00  3.787E-04  5.405E-04 -1.829E-04
   1    4   10     1    10    3.2578E-01  3.5749E-04   3.2542E-01  0.000E+00  0.000E+00  0.000E+00  1.37594E+02  4.443E-01  2.344E+00  3.786E-04  5.420E-04 -1.845E-04
   1    4   11     1    11    3.2542E-01  3.5735E-04   3.2506E-01  0.000E+00  0.000E+00  0.000E+00  1.37294E+02  4.441E-01  2.344E+00  3.785E-04  5.443E-04 -1.870E-04
   1    4   12     1    12    3.2506E-01  3.5721E-04   3.2470E-01  0.000E+00  0.000E+00  0.000E+00  1.36994E+02  4.439E-01  2.344E+00  3.785E-04  5.475E-04 -1.903E-04
   1    4   13     1    13    3.2470E-01  3.5707E-04   3.2435E-01  0.000E+00  0.000E+00  0.000E+00  1.36694E+02  4.437E-01  2.343E+00  3.784E-04  5.517E-04 -1.946E-04
   1    4   14     1    14    3.2435E-01  3.5693E-04   3.2399E-01  0.000E+00  0.000E+00  0.000E+00  1.36393E+02  4.435E-01  2.343E+00  3.783E-04  5.567E-04 -1.997E-04
   1    4   15     1    15    3.2399E-01  3.5679E-04   3.2363E-01  0.000E+00  0.000E+00  0.000E+00  1.36093E+02  4.433E-01  2.343E+00  3.783E-04  5.603E-04 -2.035E-04
   1    4   16     1    16    3.2363E-01  3.5665E-04   3.2328E-01  0.000E+00  0.000E+00  0.000E+00  1.35793E+02  4.431E-01  2.343E+00  3.782E-04  5.656E-04 -2.090E-04
   1    4   17     1    17    3.2328E-01  3.5651E-04   3.2292E-01  0.000E+00  0.000E+00  0.000E+00  1.35493E+02  4.428E-01  2.342E+00  3.781E-04  5.724E-04 -2.159E-04
   1    4   18     1    18    3.2292E-01  3.5637E-04   3.2256E-01  0.000E+00  0.000E+00  0.000E+00  1.35193E+02  4.426E-01  2.342E+00  3.781E-04  5.800E-04 -2.237E-04
   1    4   19     1    19    3.2256E-01  3.5624E-04   3.2221E-01  0.000E+00  0.000E+00  0.000E+00  1.34892E+02  4.424E-01  2.342E+00  3.780E-04  5.887E-04 -2.325E-04
   1    4   20     1    20    3.2221E-01  3.5610E-04   3.2185E-01  0.000E+00  0.000E+00  0.000E+00  1.34592E+02  4.422E-01  2.342E+00  3.779E-04  6.002E-04 -2.441E-04
   1    4   21     1    21    3.2185E-01  3.5596E-04   3.2150E-01  0.000E+00  0.000E+00  0.000E+00  1.34292E+02  4.420E-01  2.341E+00  3.779E-04  6.089E-04 -2.530E-04
   1    4   22     1    22    3.2150E-01  3.5582E-04   3.2114E-01  0.000E+00  0.000E+00  0.000E+00  1.33992E+02  4.418E-01  2.341E+00  3.778E-04  6.212E-04 -2.653E-04
   1    4   23     1    23    3.2114E-01  3.5568E-04   3.2078E-01  0.000E+00  0.000E+00  0.000E+00  1.33692E+02  4.416E-01  2.341E+00  3.777E-04  6.352E-04 -2.795E-04
   1    4   24     1    24    3.2078E-01  3.5554E-04   3.2043E-01  0.000E+00  0.000E+00  0.000E+00  1.33391E+02  4.414E-01  2.341E+00  3.777E-04  6.480E-04 -2.924E-04
   1    4   25     1    25    3.2043E-01  3.5540E-04   3.2007E-01  0.000E+00  0.000E+00  0.000E+00  1.33091E+02  4.412E-01  2.340E+00  3.776E-04  6.636E-04 -3.082E-04
   1    4   26     1    26    3.2007E-01  3.5526E-04   3.1972E-01  0.000E+00  0.000E+00  0.000E+00  1.32791E+02  4.410E-01  2.340E+00  3.775E-04  6.750E-04 -3.198E-04
   1    4   27     1    27    3.1972E-01  3.5513E-04   3.1936E-01  0.000E+00  0.000E+00  0.000E+00  1.32491E+02  4.408E-01  2.340E+00  3.775E-04  6.851E-04 -3.300E-04
   1    4   28     1    28    3.1936E-01  3.5499E-04   3.1901E-01  0.000E+00  0.000E+00  0.000E+00  1.32191E+02  4.406E-01  2.340E+00  3.774E-04  6.916E-04 -3.367E-04
   1    4   29     1    29    3.1901E-01  3.5485E-04   3.1865E-01  0.000E+00  0.000E+00  0.000E+00  1.31890E+02  4.404E-01  2.339E+00  3.773E-04  6.937E-04 -3.389E-04
   1    4   30     1    30    3.1865E-01  3.5471E-04   3.1830E-01  0.000E+00  0.000E+00  0.000E+00  1.31590E+02  4.402E-01  2.339E+00  3.773E-04  6.938E-04 -3.391E-04
   1    4   31     1    31    3.1830E-01  3.5457E-04   3.1794E-01  0.000E+00  0.000E+00  0.000E+00  1.31290E+02  4.400E-01  2.339E+00  3.772E-04  6.940E-04 -3.395E-04
   1    4   32     1    32    3.1794E-01  3.5443E-04   3.1759E-01  0.000E+00  0.000E+00  0.000E+00  1.30990E+02  4.398E-01  2.339E+00  3.771E-04  6.943E-04 -3.399E-04
   1    4   33     1    33    3.1759E-01  3.5429E-04   3.1723E-01  0.000E+00  0.000E+00  0.000E+00  1.30690E+02  4.396E-01  2.338E+00  3.771E-04  6.947E-04 -3.405E-04
   1    4   34     1    34    3.1723E-01  3.5416E-04   3.1688E-01  0.000E+00  0.000E+00  0.000E+00  1.30389E+02  4.394E-01  2.338E+00  3.770E-04  6.952E-04 -3.411E-04
   1    4   35     1    35    3.1688E-01  3.5402E-04   3.1653E-01  0.000E+00  0.000E+00  0.000E+00  1.30089E+02  4.392E-01  2.338E+00  3.769E-04  7.054E-04 -3.514E-04
   1    4   36     1    36    3.1653E-01  3.5388E-04   3.1617E-01  0.000E+00  0.000E+00  0.000E+00  1.29789E+02  4.390E-01  2.338E+00  3.769E-04  7.501E-04 -3.963E-04
   1    4   37     1    37    3.1617E-01  3.5374E-04   3.1582E-01  0.000E+00  0.000E+00  0.000E+00  1.29489E+02  4.388E-01  2.337E+00  3.768E-04  7.510E-04 -3.973E-04
   1    4   38     1    38    3.1582E-01  3.5360E-04   3.1547E-01  0.000E+00  0.000E+00  0.000E+00  1.29189E+02  4.386E-01  2.337E+00  3.767E-04  8.072E-04 -4.537E-04
   1    4   39     1    39    3.1547E-01  3.5346E-04   3.1511E-01  0.000E+00  0.000E+00  0.000E+00  1.28888E+02  4.384E-01  2.337E+00  3.767E-04  8.088E-04 -4.554E-04
   1    4   40     1    40    3.1511E-01  3.5332E-04   3.1476E-01  0.000E+00  0.000E+00  0.000E+00  1.28588E+02  4.382E-01  2.337E+00  3.766E-04  8.107E-04 -4.574E-04
   1    4   41     1    41    3.1476E-01  3.5319E-04   3.1441E-01  0.000E+00  0.000E+00  0.000E+00  1.28288E+02  4.380E-01  2.337E+00  3.765E-04  8.128E-04 -4.596E-04
   1    4   42     1    42    3.1441E-01  3.5305E-04   3.1405E-01  0.000E+00  0.000E+00  0.000E+00  1.27988E+02  4.378E-01  2.336E+00  3.765E-04  8.152E-04 -4.622E-04
   1    4   43     1    43    3.1405E-01  3.5291E-04   3.1370E-01  0.000E+00  0.000E+00  0.000E+00  1.27688E+02  4.376E-01  2.336E+00  3.764E-04  8.181E-04 -4.652E-04
   1    4   44     1    44    3.1370E-01  3.5277E-04   3.1335E-01  0.000E+00  0.000E+00  0.000E+00  1.27387E+02  4.374E-01  2.336E+00  3.763E-04  8.214E-04 -4.687E-04
   1    4   45     1    45    3.1335E-01  3.5263E-04   3.1299E-01  0.000E+00  0.000E+00  0.000E+00  1.27087E+02  4.372E-01  2.336E+00  3.763E-04  8.254E-04 -4.729E-04
   1    4   46     1    46    3.1299E-01  3.5249E-04   3.1264E-01  0.000E+00  0.000E+00  0.000E+00  1.26787E+02  4.370E-01  2.335E+00  3.762E-04  8.302E-04 -4.778E-04
   1    4   47     1    47    3.1264E-01  3.5236E-04   3.1229E-01  0.000E+00  0.000E+00  0.000E+00  1.26487E+02  4.368E-01  2.335E+00  3.761E-04  8.355E-04 -4.832E-04
   1    4   48     1    48    3.1229E-01  3.5222E-04   3.1194E-01  0.000E+00  0.000E+00  0.000E+00  1.26187E+02  4.366E-01  2.335E+00  3.761E-04  9.192E-04 -5.670E-04
   1    4   49     1    49    3.1194E-01  3.5208E-04   3.1159E-01  0.000E+00  0.000E+00  0.000E+00  1.25886E+02  4.364E-01  2.335E+00  3.760E-04  1.004E-03 -6.520E-04
   1    4   50     1    50    3.1159E-01  3.5194E-04   3.1123E-01  0.000E+00  0.000E+00  0.000E+00  1.25586E+02  4.362E-01  2.334E+00  3.759E-04  1.274E-03 -9.224E-04
   1    4   51     1    51    3.1123E-01  3.5180E-04   3.1088E-01  0.000E+00  0.000E+00  0.000E+00  1.25286E+02  4.360E-01  2.334E+00  3.759E-04  1.246E-03 -8.945E-04
   1    4   52     1    52    3.1088E-01  3.5167E-04   3.1053E-01  0.000E+00  0.000E+00  0.000E+00  1.24986E+02  4.358E-01  2.334E+00  3.758E-04  1.241E-03 -8.896E-04
   1    4   53     1    53    3.1053E-01  3.5153E-04   3.1018E-01  0.000E+00  0.000E+00  0.000E+00  1.24686E+02  4.356E-01  2.334E+00  3.757E-04  1.240E-03 -8.882E-04
   1    4   54     1    54    3.1018E-01  3.5139E-04   3.0983E-01  0.000E+00  0.000E+00  0.000E+00  1.24385E+02  4.354E-01  2.333E+00  3.757E-04  1.242E-03 -8.905E-04
   1    4   55     1    55    3.0983E-01  3.5125E-04   3.0948E-01  0.000E+00  0.000E+00  0.000E+00  1.24085E+02  4.351E-01  2.333E+00  3.756E-04  1.258E-03 -9.069E-04
   1    4   56     1    56    3.0948E-01  3.5111E-04   3.0912E-01  0.000E+00  0.000E+00  0.000E+00  1.23785E+02  4.349E-01  2.333E+00  3.755E-04  1.002E-03 -6.513E-04
   1    4   57     1    57    3.0912E-01  3.5097E-04   3.0877E-01  0.000E+00  0.000E+00  0.000E+00  1.23485E+02  4.347E-01  2.333E+00  3.755E-04  9.054E-04 -5.545E-04
   1    4   58     1    58    3.0877E-01  3.5084E-04   3.0842E-01  0.000E+00  0.000E+00  0.000E+00  1.23185E+02  4.345E-01  2.332E+00  3.754E-04  8.952E-04 -5.445E-04
   1    4   59     1    59    3.0842E-01  3.5070E-04   3.0807E-01  0.000E+00  0.000E+00  0.000E+00  1.22884E+02  4.343E-01  2.332E+00  3.753E-04  8.142E-04 -4.635E-04
   1    4   60     1    60    3.0807E-01  3.5056E-04   3.0772E-01  0.000E+00  0.000E+00  0.000E+00  1.22584E+02  4.341E-01  2.332E+00  3.753E-04  8.076E-04 -4.571E-04
   1    4   61     1    61    3.0772E-01  3.5042E-04   3.0737E-01  0.000E+00  0.000E+00  0.000E+00  1.22284E+02  4.339E-01  2.332E+00  3.752E-04  8.020E-04 -4.516E-04
   1    4   62     1    62    3.0737E-01  3.5028E-04   3.0702E-01  0.000E+00  0.000E+00  0.000E+00  1.21984E+02  4.337E-01  2.331E+00  3.751E-04  7.971E-04 -4.469E-04
   1    4   63     1    63    3.0702E-01  3.5015E-04   3.0667E-01  0.000E+00  0.000E+00  0.000E+00  1.21684E+02  4.335E-01  2.331E+00  3.751E-04  7.929E-04 -4.428E-04
   1    4   64     1    64    3.0667E-01  3.5001E-04   3.0632E-01  0.000E+00  0.000E+00  0.000E+00  1.21383E+02  4.333E-01  2.331E+00  3.750E-04  7.892E-04 -4.393E-04
   1    4   65     1    65    3.0632E-01  3.4987E-04   3.0597E-01  0.000E+00  0.000E+00  0.000E+00  1.21083E+02  4.331E-01  2.331E+00  3.749E-04  7.861E-04 -4.362E-04
   1    4   66     1    66    3.0597E-01  3.4973E-04   3.0562E-01  0.000E+00  0.000E+00  0.000E+00  1.20783E+02  4.329E-01  2.330E+00  3.749E-04  7.833E-04 -4.336E-04
   1    4   67     1    67    3.0562E-01  3.4960E-04   3.0527E-01  0.000E+00  0.000E+00  0.000E+00  1.20483E+02  4.327E-01  2.330E+00  3.748E-04  7.808E-04 -4.313E-04
   1    4   68     1    68    3.0527E-01  3.4946E-04   3.0492E-01  0.000E+00  0.000E+00  0.000E+00  1.20183E+02  4.325E-01  2.330E+00  3.747E-04  7.518E-04 -4.024E-04
   1    4   69     1    69    3.0492E-01  3.4932E-04   3.0457E-01  0.000E+00  0.000E+00  0.000E+00  1.19882E+02  4.323E-01  2.330E+00  3.747E-04  7.238E-04 -3.745E-04
   1    4   70     1    70    3.0457E-01  3.4918E-04   3.0422E-01  0.000E+00  0.000E+00  0.000E+00  1.19582E+02  4.321E-01  2.329E+00  3.746E-04  7.224E-04 -3.733E-04
   1    4   71     1    71    3.0422E-01  3.4904E-04   3.0387E-01  0.000E+00  0.000E+00  0.000E+00  1.19282E+02  4.319E-01  2.329E+00  3.746E-04  7.213E-04 -3.724E-04
   1    4   72     1    72    3.0387E-01  3.4891E-04   3.0353E-01  0.000E+00  0.000E+00  0.000E+00  1.18982E+02  4.317E-01  2.329E+00  3.745E-04  6.970E-04 -3.482E-04
   1    4   73     1    73    3.0353E-01  3.4877E-04   3.0318E-01  0.000E+00  0.000E+00  0.000E+00  1.18681E+02  4.315E-01  2.329E+00  3.744E-04  6.725E-04 -3.238E-04
   1    4   74     1    74    3.0318E-01  3.4863E-04   3.0283E-01  0.000E+00  0.000E+00  0.000E+00  1.18381E+02  4.313E-01  2.329E+00  3.744E-04  6.724E-04 -3.238E-04
   1    4   75     1    75    3.0283E-01  3.4849E-04   3.0248E-01  0.000E+00  0.000E+00  0.000E+00  1.18081E+02  4.311E-01  2.328E+00  3.743E-04  6.725E-04 -3.240E-04
   1    4   76     1    76    3.0248E-01  3.4836E-04   3.0213E-01  0.000E+00  0.000E+00  0.000E+00  1.17781E+02  4.309E-01  2.328E+00  3.742E-04  6.728E-04 -3.245E-04
   1    4   77     1    77    3.0213E-01  3.4822E-04   3.0178E-01  0.000E+00  0.000E+00  0.000E+00  1.17481E+02  4.307E-01  2.328E+00  3.742E-04  6.692E-04 -3.210E-04
   1    4   78     1    78    3.0178E-01  3.4808E-04   3.0143E-01  0.000E+00  0.000E+00  0.000E+00  1.17180E+02  4.305E-01  2.328E+00  3.741E-04  6.613E-04 -3.132E-04
   1    4   79     1    79    3.0143E-01  3.4794E-04   3.0109E-01  0.000E+00  0.000E+00  0.000E+00  1.16880E+02  4.303E-01  2.327E+00  3.740E-04  6.495E-04 -3.015E-04
   1    4   80     1    80    3.0109E-01  3.4781E-04   3.0074E-01  0.000E+00  0.000E+00  0.000E+00  1.16580E+02  4.301E-01  2.327E+00  3.740E-04  6.336E-04 -2.858E-04
   1    4   81     1    81    3.0074E-01  3.4767E-04   3.0039E-01  0.000E+00  0.000E+00  0.000E+00  1.16280E+02  4.299E-01  2.327E+00  3.739E-04  6.194E-04 -2.717E-04
   1    4   82     1    82    3.0039E-01  3.4753E-04   3.0004E-01  0.000E+00  0.000E+00  0.000E+00  1.15980E+02  4.297E-01  2.327E+00  3.738E-04  6.041E-04 -2.566E-04
   1    4   83     1    83    3.0004E-01  3.4739E-04   2.9970E-01  0.000E+00  0.000E+00  0.000E+00  1.15679E+02  4.295E-01  2.326E+00  3.738E-04  5.925E-04 -2.451E-04
   1    4   84     1    84    2.9970E-01  3.4725E-04   2.9935E-01  0.000E+00  0.000E+00  0.000E+00  1.15379E+02  4.293E-01  2.326E+00  3.737E-04  5.812E-04 -2.339E-04
   1    4   85     1    85    2.9935E-01  3.4712E-04   2.9900E-01  0.000E+00  0.000E+00  0.000E+00  1.15079E+02  4.291E-01  2.326E+00  3.736E-04  5.708E-04 -2.237E-04
   1    4   86     1    86    2.9900E-01  3.4698E-04   2.9866E-01  0.000E+00  0.000E+00  0.000E+00  1.14779E+02  4.289E-01  2.326E+00  3.736E-04  5.623E-04 -2.153E-04
   1    4   87     1    87    2.9866E-01  3.4684E-04   2.9831E-01  0.000E+00  0.000E+00  0.000E+00  1.14479E+02  4.287E-01  2.325E+00  3.735E-04  5.567E-04 -2.098E-04
   1    4   88     1    88    2.9831E-01  3.4670E-04   2.9796E-01  0.000E+00  0.000E+00  0.000E+00  1.14178E+02  4.284E-01  2.325E+00  3.734E-04  5.499E-04 -2.032E-04
   1    4   89     1    89    2.9796E-01  3.4657E-04   2.9762E-01  0.000E+00  0.000E+00  0.000E+00  1.13878E+02  4.282E-01  2.325E+00  3.734E-04  5.433E-04 -1.967E-04
   1    4   90     1    90    2.9762E-01  3.4643E-04   2.9727E-01  0.000E+00  0.000E+00  0.000E+00  1.13578E+02  4.280E-01  2.325E+00  3.733E-04  5.378E-04 -1.914E-04
   1    4   91     1    91    2.9727E-01  3.4629E-04   2.9692E-01  0.000E+00  0.000E+00  0.000E+00  1.13278E+02  4.278E-01  2.324E+00  3.732E-04  5.363E-04 -1.900E-04
   1    4   92     1    92    2.9692E-01  3.4616E-04   2.9658E-01  0.000E+00  0.000E+00  0.000E+00  1.12978E+02  4.276E-01  2.324E+00  3.732E-04  5.366E-04 -1.905E-04
   1    4   93     1    93    2.9658E-01  3.4602E-04   2.9623E-01  0.000E+00  0.000E+00  0.000E+00  1.12677E+02  4.274E-01  2.324E+00  3.731E-04  5.359E-04 -1.899E-04
   1    4   94     1    94    2.9623E-01  3.4588E-04   2.9588E-01  0.000E+00  0.000E+00  0.000E+00  1.12377E+02  4.272E-01  2.324E+00  3.730E-04  5.333E-04 -1.874E-04
   1    4   95     1    95    2.9588E-01  3.4574E-04   2.9554E-01  0.000E+00  0.000E+00  0.000E+00  1.12077E+02  4.270E-01  2.323E+00  3.730E-04  5.315E-04 -1.857E-04
   1    4   96     1    96    2.9554E-01  3.4561E-04   2.9519E-01  0.000E+00  0.000E+00  0.000E+00  1.11777E+02  4.268E-01  2.323E+00  3.729E-04  5.011E-04 -1.554E-04
   1    4   97     1    97    2.9519E-01  3.4547E-04   2.9485E-01  0.000E+00  0.000E+00  0.000E+00  1.11477E+02  4.266E-01  2.323E+00  3.728E-04  4.739E-04 -1.285E-04
   1    4   98     1    98    2.9485E-01  3.4533E-04   2.9450E-01  0.000E+00  0.000E+00  0.000E+00  1.11176E+02  4.264E-01  2.323E+00  3.728E-04  4.678E-04 -1.224E-04
   1    4   99     1    99    2.9450E-01  3.4519E-04   2.9416E-01  0.000E+00  0.000E+00  0.000E+00  1.10876E+02  4.262E-01  2.322E+00  3.727E-04  4.708E-04 -1.256E-04
   1    4  100     1   100    2.9416E-01  3.4506E-04   2.9381E-01  0.000E+00  0.000E+00  0.000E+00  1.10576E+02  4.260E-01  2.322E+00  3.726E-04  4.743E-04 -1.293E-04



1
  VOLUMETRIC BUDGET FOR UNSATURATED ZONE BENEATH STREAMS AT END OF TIME STEP    30 STRESS PERIOD  25
  ------------------------------------------------------------------------------------------------

    CUMULATIVE VOLUMES             L**3    RATES FOR THIS TIME STEP         L**3/T
    ------------------                     ------------------------


          STREAM LOSS =     27309110.0000            STREAM LOSS =        3.5188E-02
    CHANGE IN STORAGE =      1134399.2500      CHANGE IN STORAGE =       -3.4802E-02
       RECHARGE TO GW =     26181470.0000         RECHARGE TO GW =        6.9987E-02

             TOTAL IN =     27309110.0000               TOTAL IN =        6.9990E-02

            TOTAL OUT =     27315870.0000              TOTAL OUT =        6.9987E-02

             IN - OUT =        -6760.0000               IN - OUT =        2.6450E-06

  PERCENT DISCREPANCY =           -0.01      PERCENT DISCREPANCY =             0.00



1
              HEAD IN LAYER   1 AT END OF TIME STEP  30 IN STRESS PERIOD   25
  ---------------------------------------------------------------------------

          1      2      3      4      5      6      7      8      9     10
         11     12     13     14     15     16     17     18     19     20
         21     22     23     24     25     26     27     28     29     30
         31     32     33     34     35     36     37     38     39     40
         41     42     43     44     45     46     47     48     49     50
         51     52     53     54     55     56     57     58     59     60
         61     62     63     64     65     66     67     68     69     70
         71     72     73     74     75     76     77     78     79     80
         81     82     83     84     85     86     87     88     89     90
         91     92     93     94     95     96     97     98     99    100
 .........................................................................
   1    99.2   99.1   99.0   98.9   98.7   98.5   98.3   98.0   97.6   97.3
        96.8   96.4   95.8   95.3   94.7   94.0   93.3   92.5   91.7   90.9
        89.9   89.0   87.9   86.8   85.7   84.5   83.2   81.8   80.4   78.9
        77.3   75.7   73.9   72.0   70.1   68.0   65.8   63.5   61.0   58.4
        55.6   52.6   49.3   45.8   41.9   37.6   32.6   26.7   19.5   11.3
        10.3   10.8   11.2   12.0   14.4   19.2   24.2   28.8   32.9   36.6
        39.9   42.9   45.6   48.1   50.4   52.6   54.5   56.4   58.1   59.7
        61.2   62.5   63.8   65.0   66.1   67.1   68.1   69.0   69.8   70.5
        71.1   71.8   72.3   72.8   73.2   73.6   73.9   74.2   74.4   74.6
        74.8   74.9   75.0   75.1   75.1   75.1   75.1   75.1   75.0   75.0
   2    99.2   99.1   99.0   98.9   98.7   98.5   98.3   98.0   97.6   97.3
        96.8   96.4   95.8   95.3   94.7   94.0   93.3   92.5   91.7   90.9
        89.9   89.0   87.9   86.8   85.7   84.5   83.2   81.8   80.4   78.9
        77.3   75.7   73.9   72.0   70.1   68.0   65.8   63.5   61.0   58.4
        55.6   52.6   49.3   45.8   41.9   37.6   32.6   26.7   19.2    8.6
         9.9   10.8   11.1   11.6   13.5   18.8   24.1   28.8   32.9   36.6
        39.9   42.9   45.6   48.1   50.4   52.6   54.5   56.4   58.1   59.7
        61.2   62.6   63.8   65.0   66.1   67.1   68.1   69.0   69.8   70.5
        71.2   71.8   72.3   72.8   73.2   73.6   73.9   74.2   74.4   74.6
        74.8   74.9   75.0   75.1   75.1   75.1   75.1   75.1   75.0   75.0
   3    99.2   99.1   99.0   98.9   98.7   98.5   98.3   98.0   97.6   97.3
        96.8   96.4   95.8   95.3   94.7   94.0   93.3   92.5   91.7   90.9
        89.9   89.0   87.9   86.8   85.7   84.5   83.2   81.8   80.4   78.9
        77.3   75.7   73.9   72.0   70.1   68.0   65.8   63.5   61.0   58.4
        55.6   52.6   49.3   45.8   41.9   37.6   32.7   26.8   18.8    0.0
         9.6   10.8   10.9   10.8   11.5   18.1   23.9   28.8   32.9   36.6
        39.9   42.9   45.6   48.1   50.4   52.6   54.5   56.4   58.1   59.7
        61.2   62.6   63.8   65.0   66.1   67.2   68.1   69.0   69.8   70.5
        71.2   71.8   72.3   72.8   73.2   73.6   73.9   74.2   74.4   74.6
        74.8   74.9   75.0   75.1   75.1   75.1   75.1   75.1   75.0   75.0
   4    99.2   99.1   99.0   98.9   98.7   98.5   98.3   98.0   97.6   97.3
        96.8   96.4   95.8   95.3   94.7   94.0   93.3   92.5   91.7   90.9
        89.9   89.0   87.9   86.8   85.7   84.5   83.2   81.8   80.4   78.9
        77.3   75.7   73.9   72.0   70.1   68.0   65.8   63.5   61.0   58.4
        55.6   52.6   49.3   45.8   41.9   37.6   32.7   27.0   19.7    8.9
        10.6   11.0   10.8   10.0    7.9   17.3   23.7   28.7   32.9   36.6
        39.9   42.9   45.6   48.1   50.4   52.6   54.5   56.4   58.1   59.7
        61.2   62.6   63.8   65.0   66.1   67.2   68.1   69.0   69.8   70.5
        71.2   71.8   72.3   72.8   73.2   73.6   73.9   74.2   74.4   74.6
        74.8   74.9   75.0   75.1   75.1   75.1   75.1   75.1   75.0   75.0
   5    99.2   99.1   99.0   98.9   98.7   98.5   98.3   98.0   97.6   97.3
        96.8   96.4   95.8   95.3   94.7   94.0   93.3   92.5   91.7   90.9
        89.9   89.0   87.9   86.8   85.7   84.5   83.2   81.8   80.4   78.9
        77.3   75.7   73.9   72.0   70.1   68.0   65.8   63.5   61.0   58.4
        55.6   52.6   49.3   45.8   41.9   37.6   32.8   27.2   20.5   12.9
        11.6   11.2   10.6    9.1    0.0   16.6   23.6   28.6   32.9   36.6
        39.9   42.9   45.6   48.1   50.4   52.6   54.5   56.4   58.1   59.7
        61.2   62.6   63.8   65.0   66.1   67.2   68.1   69.0   69.8   70.5
        71.2   71.8   72.3   72.8   73.2   73.6   73.9   74.2   74.4   74.6
        74.8   74.9   75.0   75.1   75.1   75.1   75.1   75.1   75.0   75.0
   6    99.2   99.1   99.0   98.9   98.7   98.5   98.3   98.0   97.6   97.3
        96.8   96.4   95.8   95.3   94.7   94.0   93.3   92.5   91.7   90.9
        89.9   89.0   87.9   86.8   85.7   84.5   83.2   81.8   80.4   78.9
        77.3   75.7   73.9   72.0   70.1   68.0   65.8   63.5   61.0   58.4
        55.6   52.6   49.3   45.8   41.9   37.7   32.9   27.4   21.3   15.1
        12.6   11.5   10.6    9.4    7.7   16.9   23.5   28.6   32.9   36.6
        39.9   42.9   45.6   48.1   50.4   52.6   54.5   56.4   58.1   59.7
        61.2   62.6   63.8   65.0   66.1   67.1   68.1   69.0   69.8   70.5
        71.2   71.8   72.3   72.8   73.2   73.6   73.9   74.2   74.4   74.6
        74.8   74.9   75.0   75.1   75.1   75.1   75.1   75.1   75.0   75.0
   7    99.2   99.1   99.0   98.9   98.7   98.5   98.3   98.0   97.6   97.3
        96.8   96.4   95.8   95.3   94.7   94.0   93.3   92.5   91.7   90.9
        89.9   89.0   87.9   86.8   85.7   84.5   83.2   81.8   80.4   78.9
        77.3   75.7   73.9   72.0   70.1   68.0   65.8   63.5   61.0   58.4
        55.6   52.6   49.3   45.8   41.9   37.7   32.9   27.5   21.7   16.1
        13.1   11.6   10.7    9.7   10.1   17.2   23.5   28.6   32.9   36.6
        39.9   42.9   45.6   48.1   50.4   52.6   54.5   56.4   58.1   59.7
        61.2   62.5   63.8   65.0   66.1   67.1   68.1   69.0   69.8   70.5
        71.1   71.8   72.3   72.8   73.2   73.6   73.9   74.2   74.4   74.6
        74.8   74.9   75.0   75.1   75.1   75.1   75.1   75.1   75.0   75.0

 HEAD WILL BE SAVED ON UNIT   51 AT END OF TIME STEP   30, STRESS PERIOD   25
1
  VOLUMETRIC BUDGET FOR ENTIRE MODEL AT END OF TIME STEP   30, STRESS PERIOD  25
  ------------------------------------------------------------------------------

     CUMULATIVE VOLUMES      L**3       RATES FOR THIS TIME STEP      L**3/T
     ------------------                 ------------------------

           IN:                                      IN:
           ---                                      ---
             STORAGE     =    91463728.0000               STORAGE     =           0.7657
       CONSTANT HEAD     =           0.0000         CONSTANT HEAD     =           0.0000
               WELLS     =           0.0000                 WELLS     =           0.0000
     HEAD DEP BOUNDS     =           0.0000       HEAD DEP BOUNDS     =           0.0000
      STREAM LEAKAGE     =    26181110.0000        STREAM LEAKAGE     =       6.9987E-02

                TOTAL IN =   117644840.0000                  TOTAL IN =           0.8357

          OUT:                                     OUT:
          ----                                     ----
             STORAGE     =     3026919.7500               STORAGE     =           0.0000
       CONSTANT HEAD     =           0.0000         CONSTANT HEAD     =           0.0000
               WELLS     =    98263672.0000                 WELLS     =           0.8280
     HEAD DEP BOUNDS     =    16354278.0000       HEAD DEP BOUNDS     =       7.7685E-03
      STREAM LEAKAGE     =           0.0000        STREAM LEAKAGE     =           0.0000

               TOTAL OUT =   117644872.0000                 TOTAL OUT =           0.8357

                IN - OUT =         -32.0000                  IN - OUT =      -5.9605E-08

     PERCENT DISCREPANCY =          -0.00         PERCENT DISCREPANCY =          -0.00






         TIME SUMMARY AT END OF TIME STEP   30 IN STRESS PERIOD   25
                    SECONDS     MINUTES      HOURS       DAYS        YEARS
                    -----------------------------------------------------------
   TIME STEP LENGTH 2.49961E+05  4166.0      69.434      2.8931     7.92080E-03
 STRESS PERIOD TIME 2.59200E+06  43200.      720.00      30.000     8.21355E-02
         TOTAL TIME 6.47999E+07 1.08000E+06  18000.      750.00      2.0534    
1
1
                            STRESS PERIOD NO.   26, LENGTH =   2592000.    
                            -----------------------------------------------

                              NUMBER OF TIME STEPS =    30

                               MULTIPLIER FOR DELT =     1.100

                            INITIAL TIME STEP SIZE =   15757.40    

 REUSING NON-PARAMETER WELLS FROM LAST STRESS PERIOD

      1 WELL 

 REUSING NON-PARAMETER GHB CELLS FROM LAST STRESS PERIOD

      7 GHB CELLS



 CLASSIFICATION & COUNT OF STREAM SEGMENTS BASED ON SOURCE OF INFLOW:

                HEADWATER     DIVERSION     RECEIVES TRIBUTARY FLOW
                ---------     ---------     -----------------------
                     1              0               0



                    INPUT DATA FOR EACH STREAM SEGMENT
 ---------------------------------------------------------------------------------------------

 SEGMENT    SEG.     INFLOW   OVERLAND   STREAM    STREAM   ICALC  OUTFLOW  DIVERSION PRIORITY
    NO.    LENGTH     RATE     RUNOFF      ET       PPT.    METH.  TO SEG.  FROM SEG.    NO.

      1  2.000E+04 5.120E-01 0.000E+00 0.000E+00 0.000E+00    2        0        0        0


         STREAMBED PROPERTIES AND STREAM DIMENSIONS

 SEGMENT     BED HYD. COND.      BED THICKNESS     ELEV.-TOP OF BED     WIDTH OF STREAM     DEPTH OF STREAM    STREAM ROUGHNESS
    No.     UPPER     LOWER     UPPER     LOWER     UPPER     LOWER     UPPER     LOWER     UPPER     LOWER   CHANNEL      BANK

     1  3.500E-07 3.500E-07                                                                                 3.000E-02 4.000E-02

  EIGHT POINT CROSS-SECTION DATA FOR SEGMENTS WITH ICALC = 2
    X VALUES X VALUES START FROM LEFT SIDE LOOKING DOWNSTREAM

     SEGMENT NO.        X1        X2        X3        X4        X5        X6        X7        X8
            1      0.000E+00 2.000E+00 4.000E+00 6.000E+00 8.000E+00 1.000E+01 1.200E+01 1.400E+01

    Z VALUES ARE RELATIVE TO STREAMBED ELEVATION

     SEGMENT NO.          Z1        Z2        Z3        Z4        Z5        Z6        Z7        Z8
            1      6.000E+00 4.500E+00 3.500E+00 0.000E+00 3.000E-01 3.500E+00 4.500E+00 6.000E+00



 
 SOLVING FOR HEAD 
                                                   Max.-Head-Change                         Max.-Flux-Residual
  Residual-Control   Outer-Iter.   Inner-Iter.     Column Row Layer    Maximum-Head-Change  Column Row Layer    Maximum-Flux-Residual          L2-NORM 
          0                 1           2            73    1     1      -0.7180880060E-02      50    3    1        -0.2218115185E+00      0.2856609070E+00
          0                 2           2            73    1     1       0.7025665178E-03      50    3    1         0.1723323584E-01      0.2009435576E-01
          0                 3           1            73    1     1      -0.6219840193E-04      50    3    1        -0.1642362078E-02      0.1910744201E-02
          0                 4           1            73    1     1       0.4917813559E-05      50    3    1         0.1307952697E-03      0.1522744561E-03
          0                 5           1            72    1     1      -0.3420035585E-06      50    3    1        -0.9199531038E-05      0.1071341380E-04

    ------------------------------------------------
       NWT REQUIRED            5 OUTER ITERATIONS 
       AND A TOTAL OF          7 INNER ITERATIONS.
    ------------------------------------------------

 NO OUTPUT CONTROL FOR STRESS PERIOD   26   TIME STEP    1
 
 WELLS WITH REDUCED PUMPING FOR STRESS PERIOD    26 TIME STEP     1
   LAY   ROW   COL         APPL.Q          ACT.Q        GW-HEAD       CELL-BOT
     1     3    50  -0.137839E+01  -0.459944E+00   0.433673E-03   0.000000E+00
     1     5    55  -0.137839E+01  -0.367807E+00   0.376283E-03   0.000000E+00
 
 
 SOLVING FOR HEAD 
                                                   Max.-Head-Change                         Max.-Flux-Residual
  Residual-Control   Outer-Iter.   Inner-Iter.     Column Row Layer    Maximum-Head-Change  Column Row Layer    Maximum-Flux-Residual          L2-NORM 
          0                 1           2            73    1     1      -0.7894852370E-02      72    3    1        -0.1496673217E-02      0.3059658054E-01
          0                 2           2            73    1     1       0.7710225159E-03      72    3    1         0.1496645517E-03      0.2971790588E-02
          0                 3           1            72    1     1      -0.6817201968E-04      72    3    1        -0.1346993592E-04      0.2730028967E-03
          0                 4           1            72    1     1       0.5386381398E-05      72    3    1         0.1078947754E-05      0.2240706097E-04
          0                 5           1            72    1     1      -0.3743975463E-06      72    3    1        -0.7584942452E-07      0.1601912820E-05

    ------------------------------------------------
       NWT REQUIRED            5 OUTER ITERATIONS 
       AND A TOTAL OF          7 INNER ITERATIONS.
    ------------------------------------------------

 NO OUTPUT CONTROL FOR STRESS PERIOD   26   TIME STEP    2
 
 WELLS WITH REDUCED PUMPING FOR STRESS PERIOD    26 TIME STEP     2
   LAY   ROW   COL         APPL.Q          ACT.Q        GW-HEAD       CELL-BOT
     1     3    50  -0.137991E+01  -0.459803E+00   0.433304E-03   0.000000E+00
     1     5    55  -0.137991E+01  -0.367670E+00   0.375959E-03   0.000000E+00
 
 
 SOLVING FOR HEAD 
                                                   Max.-Head-Change                         Max.-Flux-Residual
  Residual-Control   Outer-Iter.   Inner-Iter.     Column Row Layer    Maximum-Head-Change  Column Row Layer    Maximum-Flux-Residual          L2-NORM 
          0                 1           2            73    1     1      -0.8679407476E-02      72    3    1        -0.1495719397E-02      0.3058856950E-01
          0                 2           2            73    1     1       0.8459669908E-03      72    3    1         0.1495687669E-03      0.2972238129E-02
          0                 3           1            72    1     1      -0.7469621202E-04      72    3    1        -0.1346133492E-04      0.2734035116E-03
          0                 4           1            72    1     1       0.5895678698E-05      72    3    1         0.1078262356E-05      0.2249643791E-04
          0                 5           1            72    1     1      -0.4095300368E-06       1    4    1         0.7820353787E-07      0.1612440889E-05

    ------------------------------------------------
       NWT REQUIRED            5 OUTER ITERATIONS 
       AND A TOTAL OF          7 INNER ITERATIONS.
    ------------------------------------------------

 NO OUTPUT CONTROL FOR STRESS PERIOD   26   TIME STEP    3
 
 WELLS WITH REDUCED PUMPING FOR STRESS PERIOD    26 TIME STEP     3
   LAY   ROW   COL         APPL.Q          ACT.Q        GW-HEAD       CELL-BOT
     1     3    50  -0.138011E+01  -0.459663E+00   0.433186E-03   0.000000E+00
     1     5    55  -0.138011E+01  -0.367530E+00   0.375842E-03   0.000000E+00
 
 
 SOLVING FOR HEAD 
                                                   Max.-Head-Change                         Max.-Flux-Residual
  Residual-Control   Outer-Iter.   Inner-Iter.     Column Row Layer    Maximum-Head-Change  Column Row Layer    Maximum-Flux-Residual          L2-NORM 
          0                 1           2            73    1     1      -0.9541243687E-02      72    3    1        -0.1493993525E-02      0.3058630452E-01
          0                 2           2            73    1     1       0.9279756228E-03      72    3    1         0.1493958571E-03      0.2971992727E-02
          0                 3           1            72    1     1      -0.8180147673E-04      72    3    1        -0.1344579494E-04      0.2737078979E-03
          0                 4           1            72    1     1       0.6448558054E-05      72    3    1         0.1077023272E-05      0.2258035364E-04
          0                 5           1            72    1     1      -0.4475756088E-06       1    4    1         0.8161580922E-07      0.1622996047E-05

    ------------------------------------------------
       NWT REQUIRED            5 OUTER ITERATIONS 
       AND A TOTAL OF          7 INNER ITERATIONS.
    ------------------------------------------------

 NO OUTPUT CONTROL FOR STRESS PERIOD   26   TIME STEP    4
 
 WELLS WITH REDUCED PUMPING FOR STRESS PERIOD    26 TIME STEP     4
   LAY   ROW   COL         APPL.Q          ACT.Q        GW-HEAD       CELL-BOT
     1     3    50  -0.137993E+01  -0.459511E+00   0.433134E-03   0.000000E+00
     1     5    55  -0.137993E+01  -0.367377E+00   0.375780E-03   0.000000E+00
 
 
 SOLVING FOR HEAD 
                                                   Max.-Head-Change                         Max.-Flux-Residual
  Residual-Control   Outer-Iter.   Inner-Iter.     Column Row Layer    Maximum-Head-Change  Column Row Layer    Maximum-Flux-Residual          L2-NORM 
          0                 1           2            73    1     1      -0.1048783671E-01      72    3    1        -0.1492323823E-02      0.3058246844E-01
          0                 2           2            73    1     1       0.1017689944E-02      72    3    1         0.1492285544E-03      0.2971773831E-02
          0                 3           1            72    1     1      -0.8953699064E-04      72    3    1        -0.1343076235E-04      0.2740219677E-03
          0                 4           1            72    1     1       0.7048333275E-05      72    3    1         0.1075828060E-05      0.2266702156E-04
          0                 5           1            72    1     1      -0.4887304390E-06       1    4    1         0.8498826176E-07      0.1634087298E-05

    ------------------------------------------------
       NWT REQUIRED            5 OUTER ITERATIONS 
       AND A TOTAL OF          7 INNER ITERATIONS.
    ------------------------------------------------

 NO OUTPUT CONTROL FOR STRESS PERIOD   26   TIME STEP    5
 
 WELLS WITH REDUCED PUMPING FOR STRESS PERIOD    26 TIME STEP     5
   LAY   ROW   COL         APPL.Q          ACT.Q        GW-HEAD       CELL-BOT
     1     3    50  -0.138009E+01  -0.459345E+00   0.433007E-03   0.000000E+00
     1     5    55  -0.138009E+01  -0.367210E+00   0.375654E-03   0.000000E+00
 
 
 SOLVING FOR HEAD 
                                                   Max.-Head-Change                         Max.-Flux-Residual
  Residual-Control   Outer-Iter.   Inner-Iter.     Column Row Layer    Maximum-Head-Change  Column Row Layer    Maximum-Flux-Residual          L2-NORM 
          0                 1           2            73    1     1      -0.1152741538E-01      73    3    1        -0.1490965120E-02      0.3058001762E-01
          0                 2           2            73    1     1       0.1115819838E-02      73    3    1         0.1490925029E-03      0.2971286137E-02
          0                 3           1            72    1     1      -0.9795736964E-04      73    3    1        -0.1341854137E-04      0.2742763252E-03
          0                 4           1            72    1     1       0.7698646837E-05      73    5    1         0.1074824672E-05      0.2274932197E-04
          0                 5           1            72    1     1      -0.5332064471E-06       1    4    1         0.8831981546E-07      0.1645208382E-05

    ------------------------------------------------
       NWT REQUIRED            5 OUTER ITERATIONS 
       AND A TOTAL OF          7 INNER ITERATIONS.
    ------------------------------------------------

 NO OUTPUT CONTROL FOR STRESS PERIOD   26   TIME STEP    6
 
 WELLS WITH REDUCED PUMPING FOR STRESS PERIOD    26 TIME STEP     6
   LAY   ROW   COL         APPL.Q          ACT.Q        GW-HEAD       CELL-BOT
     1     3    50  -0.137992E+01  -0.459164E+00   0.432937E-03   0.000000E+00
     1     5    55  -0.137992E+01  -0.367028E+00   0.375572E-03   0.000000E+00
 
 
 SOLVING FOR HEAD 
                                                   Max.-Head-Change                         Max.-Flux-Residual
  Residual-Control   Outer-Iter.   Inner-Iter.     Column Row Layer    Maximum-Head-Change  Column Row Layer    Maximum-Flux-Residual          L2-NORM 
          0                 1           2            73    1     1      -0.1266925955E-01      73    3    1        -0.1490006247E-02      0.3058269317E-01
          0                 2           2            73    1     1       0.1223164709E-02      73    3    1         0.1489962151E-03      0.2970922455E-02
          0                 3           1            72    1     1      -0.1071222873E-03      73    3    1        -0.1340990588E-04      0.2745169888E-03
          0                 4           1            72    1     1       0.8403416526E-05      73    5    1         0.1074132763E-05      0.2283125469E-04
          0                 5           1            72    1     1      -0.5812256734E-06       2    4    1         0.9168502757E-07      0.1656630572E-05

    ------------------------------------------------
       NWT REQUIRED            5 OUTER ITERATIONS 
       AND A TOTAL OF          7 INNER ITERATIONS.
    ------------------------------------------------

 NO OUTPUT CONTROL FOR STRESS PERIOD   26   TIME STEP    7
 
 WELLS WITH REDUCED PUMPING FOR STRESS PERIOD    26 TIME STEP     7
   LAY   ROW   COL         APPL.Q          ACT.Q        GW-HEAD       CELL-BOT
     1     3    50  -0.138004E+01  -0.458967E+00   0.432802E-03   0.000000E+00
     1     5    55  -0.138004E+01  -0.366829E+00   0.375434E-03   0.000000E+00
 
 
 SOLVING FOR HEAD 
                                                   Max.-Head-Change                         Max.-Flux-Residual
  Residual-Control   Outer-Iter.   Inner-Iter.     Column Row Layer    Maximum-Head-Change  Column Row Layer    Maximum-Flux-Residual          L2-NORM 
          0                 1           2            73    1     1      -0.1392411910E-01      73    3    1        -0.1489038933E-02      0.3058409096E-01
          0                 2           2            73    1     1       0.1340617538E-02      73    3    1         0.1488990968E-03      0.2971192277E-02
          0                 3           2            72    1     1      -0.1170971878E-03      73    3    1        -0.1340119890E-04      0.2748482871E-03
          0                 4           1            72    1     1       0.9167293777E-05      73    5    1         0.1073435083E-05      0.2292399835E-04
          0                 5           1            72    1     1      -0.6330548013E-06       5    4    1         0.9409048829E-07      0.1669047295E-05

    ------------------------------------------------
       NWT REQUIRED            5 OUTER ITERATIONS 
       AND A TOTAL OF          8 INNER ITERATIONS.
    ------------------------------------------------

 NO OUTPUT CONTROL FOR STRESS PERIOD   26   TIME STEP    8
 
 WELLS WITH REDUCED PUMPING FOR STRESS PERIOD    26 TIME STEP     8
   LAY   ROW   COL         APPL.Q          ACT.Q        GW-HEAD       CELL-BOT
     1     3    50  -0.138006E+01  -0.458751E+00   0.432675E-03   0.000000E+00
     1     5    55  -0.138006E+01  -0.366611E+00   0.375301E-03   0.000000E+00
 
 
 SOLVING FOR HEAD 
                                                   Max.-Head-Change                         Max.-Flux-Residual
  Residual-Control   Outer-Iter.   Inner-Iter.     Column Row Layer    Maximum-Head-Change  Column Row Layer    Maximum-Flux-Residual          L2-NORM 
          0                 1           2            73    1     1      -0.1530338062E-01      74    5    1        -0.1488302565E-02      0.3058015059E-01
          0                 2           2            73    1     1       0.1469239880E-02      74    3    1         0.1488253379E-03      0.2971163095E-02
          0                 3           2            73    1     1      -0.1279875584E-03      74    3    1        -0.1339459554E-04      0.2751529017E-03
          0                 4           1            72    1     1       0.9994522872E-05      74    5    1         0.1072905803E-05      0.2301392501E-04
          0                 5           1            72    1     1      -0.6889169113E-06       3    4    1         0.9730140604E-07      0.1681475189E-05

    ------------------------------------------------
       NWT REQUIRED            5 OUTER ITERATIONS 
       AND A TOTAL OF          8 INNER ITERATIONS.
    ------------------------------------------------

 NO OUTPUT CONTROL FOR STRESS PERIOD   26   TIME STEP    9
 
 WELLS WITH REDUCED PUMPING FOR STRESS PERIOD    26 TIME STEP     9
   LAY   ROW   COL         APPL.Q          ACT.Q        GW-HEAD       CELL-BOT
     1     3    50  -0.137994E+01  -0.458515E+00   0.432562E-03   0.000000E+00
     1     5    55  -0.137994E+01  -0.366373E+00   0.375176E-03   0.000000E+00
 
 
 SOLVING FOR HEAD 
                                                   Max.-Head-Change                         Max.-Flux-Residual
  Residual-Control   Outer-Iter.   Inner-Iter.     Column Row Layer    Maximum-Head-Change  Column Row Layer    Maximum-Flux-Residual          L2-NORM 
          0                 1           2            73    1     1      -0.1682164590E-01      74    5    1        -0.1488485034E-02      0.3057445156E-01
          0                 2           2            73    1     1       0.1610238418E-02      74    3    1         0.1488431386E-03      0.2970437516E-02
          0                 3           2            73    1     1      -0.1398694312E-03      74    3    1        -0.1339623895E-04      0.2753525148E-03
          0                 4           1            73    1     1       0.1089073846E-04      71    4    1        -0.1080640619E-05      0.2309475125E-04
          0                 5           1            72    1     1      -0.7491116795E-06       2    4    1         0.1004154981E-06      0.1693461564E-05

    ------------------------------------------------
       NWT REQUIRED            5 OUTER ITERATIONS 
       AND A TOTAL OF          8 INNER ITERATIONS.
    ------------------------------------------------

 NO OUTPUT CONTROL FOR STRESS PERIOD   26   TIME STEP   10
 
 WELLS WITH REDUCED PUMPING FOR STRESS PERIOD    26 TIME STEP    10
   LAY   ROW   COL         APPL.Q          ACT.Q        GW-HEAD       CELL-BOT
     1     3    50  -0.138003E+01  -0.458257E+00   0.432398E-03   0.000000E+00
     1     5    55  -0.138003E+01  -0.366113E+00   0.375006E-03   0.000000E+00
 
 
 SOLVING FOR HEAD 
                                                   Max.-Head-Change                         Max.-Flux-Residual
  Residual-Control   Outer-Iter.   Inner-Iter.     Column Row Layer    Maximum-Head-Change  Column Row Layer    Maximum-Flux-Residual          L2-NORM 
          0                 1           2            73    1     1      -0.1849319800E-01      74    5    1        -0.1488742783E-02      0.3056924811E-01
          0                 2           2            73    1     1       0.1765187440E-02      74    3    1         0.1488683712E-03      0.2969631844E-02
          0                 3           2            73    1     1      -0.1528779640E-03      74    3    1        -0.1339855569E-04      0.2755192594E-03
          0                 4           1            73    1     1       0.1187044850E-04       1    4    1        -0.1103652899E-05      0.2317135654E-04
          0                 5           1            72    1     1      -0.8143247375E-06       1    4    1         0.1033563066E-06      0.1705210652E-05

    ------------------------------------------------
       NWT REQUIRED            5 OUTER ITERATIONS 
       AND A TOTAL OF          8 INNER ITERATIONS.
    ------------------------------------------------

 NO OUTPUT CONTROL FOR STRESS PERIOD   26   TIME STEP   11
 
 WELLS WITH REDUCED PUMPING FOR STRESS PERIOD    26 TIME STEP    11
   LAY   ROW   COL         APPL.Q          ACT.Q        GW-HEAD       CELL-BOT
     1     3    50  -0.138005E+01  -0.457974E+00   0.432234E-03   0.000000E+00
     1     5    55  -0.138005E+01  -0.365828E+00   0.374833E-03   0.000000E+00
 
 
 SOLVING FOR HEAD 
                                                   Max.-Head-Change                         Max.-Flux-Residual
  Residual-Control   Outer-Iter.   Inner-Iter.     Column Row Layer    Maximum-Head-Change  Column Row Layer    Maximum-Flux-Residual          L2-NORM 
          0                 1           2            73    1     1      -0.2033450660E-01      74    5    1        -0.1488729338E-02      0.3056498980E-01
          0                 2           2            73    1     1       0.1934875358E-02      74    3    1         0.1488666238E-03      0.2968846329E-02
          0                 3           2            73    7     1      -0.1670432932E-03      74    3    1        -0.1339844787E-04      0.2756895844E-03
          0                 4           1            73    1     1       0.1293135836E-04      70    4    1        -0.1132556552E-05      0.2324761332E-04
          0                 5           1            72    1     1      -0.8845705771E-06       1    4    1         0.1061500505E-06      0.1716927544E-05

    ------------------------------------------------
       NWT REQUIRED            5 OUTER ITERATIONS 
       AND A TOTAL OF          8 INNER ITERATIONS.
    ------------------------------------------------

 NO OUTPUT CONTROL FOR STRESS PERIOD   26   TIME STEP   12
 
 WELLS WITH REDUCED PUMPING FOR STRESS PERIOD    26 TIME STEP    12
   LAY   ROW   COL         APPL.Q          ACT.Q        GW-HEAD       CELL-BOT
     1     3    50  -0.137995E+01  -0.457664E+00   0.432076E-03   0.000000E+00
     1     5    55  -0.137995E+01  -0.365513E+00   0.374660E-03   0.000000E+00
 
 
 SOLVING FOR HEAD 
                                                   Max.-Head-Change                         Max.-Flux-Residual
  Residual-Control   Outer-Iter.   Inner-Iter.     Column Row Layer    Maximum-Head-Change  Column Row Layer    Maximum-Flux-Residual          L2-NORM 
          0                 1           2            73    1     1      -0.2236215964E-01      74    5    1        -0.1489145200E-02      0.3056808013E-01
          0                 2           2            73    7     1       0.2121572804E-02      74    3    1         0.1489073299E-03      0.2967976435E-02
          0                 3           2            73    7     1      -0.1825846627E-03      74    3    1        -0.1340216713E-04      0.2757708368E-03
          0                 4           1            73    1     1       0.1408998960E-04      70    4    1        -0.1163878943E-05      0.2331233770E-04
          0                 5           1            72    1     1      -0.9608173091E-06       1    4    1         0.1090041053E-06      0.1727721544E-05

    ------------------------------------------------
       NWT REQUIRED            5 OUTER ITERATIONS 
       AND A TOTAL OF          8 INNER ITERATIONS.
    ------------------------------------------------

 NO OUTPUT CONTROL FOR STRESS PERIOD   26   TIME STEP   13
 
 WELLS WITH REDUCED PUMPING FOR STRESS PERIOD    26 TIME STEP    13
   LAY   ROW   COL         APPL.Q          ACT.Q        GW-HEAD       CELL-BOT
     1     3    50  -0.137996E+01  -0.457322E+00   0.431878E-03   0.000000E+00
     1     5    55  -0.137996E+01  -0.365168E+00   0.374452E-03   0.000000E+00
 
 
 SOLVING FOR HEAD 
                                                   Max.-Head-Change                         Max.-Flux-Residual
  Residual-Control   Outer-Iter.   Inner-Iter.     Column Row Layer    Maximum-Head-Change  Column Row Layer    Maximum-Flux-Residual          L2-NORM 
          0                 1           2            73    1     1      -0.2458873317E-01      73    3    1        -0.1489283072E-02      0.3056875214E-01
          0                 2           2            73    7     1       0.2325558349E-02      73    3    1         0.1489202157E-03      0.2968106566E-02
          0                 3           2            73    7     1      -0.1994742081E-03      73    3    1        -0.1340339617E-04      0.2759919375E-03
          0                 4           1            73    1     1       0.1534200238E-04      70    4    1        -0.1194568206E-05      0.2338947808E-04
          0                 5           1            72    1     1      -0.1042694012E-05      16    4    1         0.1104637519E-06      0.1739334462E-05
          0                 6           1            72    1     1       0.6152034099E-07       6    4    1        -0.8114032113E-08      0.1104914035E-06

    ------------------------------------------------
       NWT REQUIRED            6 OUTER ITERATIONS 
       AND A TOTAL OF          9 INNER ITERATIONS.
    ------------------------------------------------

 NO OUTPUT CONTROL FOR STRESS PERIOD   26   TIME STEP   14
 
 WELLS WITH REDUCED PUMPING FOR STRESS PERIOD    26 TIME STEP    14
   LAY   ROW   COL         APPL.Q          ACT.Q        GW-HEAD       CELL-BOT
     1     3    50  -0.138003E+01  -0.456921E+00   0.431636E-03   0.000000E+00
     1     5    55  -0.138003E+01  -0.364746E+00   0.374187E-03   0.000000E+00
 
 
 SOLVING FOR HEAD 
                                                   Max.-Head-Change                         Max.-Flux-Residual
  Residual-Control   Outer-Iter.   Inner-Iter.     Column Row Layer    Maximum-Head-Change  Column Row Layer    Maximum-Flux-Residual          L2-NORM 
          0                 1           2            73    1     1      -0.2704110910E-01      74    3    1        -0.1489214371E-02      0.3056335551E-01
          0                 2           2            73    7     1       0.2550100803E-02      74    3    1         0.1489125247E-03      0.2967678302E-02
          0                 3           2            73    7     1      -0.2180172295E-03      74    3    1        -0.1340276105E-04      0.2761643314E-03
          0                 4           1            73    1     1       0.1670996897E-04      70    4    1        -0.1220337751E-05      0.2346203242E-04
          0                 5           1            73    1     1      -0.1131593608E-05       2    4    1         0.1128829261E-06      0.1750445555E-05
          0                 6           1            72    7     1       0.6652754610E-07       2    4    1        -0.8357417869E-08      0.1116089158E-06

    ------------------------------------------------
       NWT REQUIRED            6 OUTER ITERATIONS 
       AND A TOTAL OF          9 INNER ITERATIONS.
    ------------------------------------------------

 NO OUTPUT CONTROL FOR STRESS PERIOD   26   TIME STEP   15
 
 WELLS WITH REDUCED PUMPING FOR STRESS PERIOD    26 TIME STEP    15
   LAY   ROW   COL         APPL.Q          ACT.Q        GW-HEAD       CELL-BOT
     1     3    50  -0.138003E+01  -0.456473E+00   0.431380E-03   0.000000E+00
     1     5    55  -0.138003E+01  -0.364304E+00   0.373922E-03   0.000000E+00
 
 
 SOLVING FOR HEAD 
                                                   Max.-Head-Change                         Max.-Flux-Residual
  Residual-Control   Outer-Iter.   Inner-Iter.     Column Row Layer    Maximum-Head-Change  Column Row Layer    Maximum-Flux-Residual          L2-NORM 
          0                 1           2            73    1     1      -0.2972992214E-01      73    3    1        -0.1489417019E-02      0.3054900706E-01
          0                 2           2            73    7     1       0.2795213957E-02      73    3    1         0.1489319059E-03      0.2966754005E-02
          0                 3           2            73    7     1      -0.2381626326E-03      73    5    1        -0.1340458886E-04      0.2762901478E-03
          0                 4           1            73    1     1       0.1818836656E-04      70    4    1        -0.1238472093E-05      0.2352939910E-04
          0                 5           1            73    1     1      -0.1227068685E-05       2    4    1         0.1152438251E-06      0.1760896351E-05
          0                 6           1            72    7     1       0.7189706326E-07       2    4    1        -0.8572907717E-08      0.1126745005E-06

    ------------------------------------------------
       NWT REQUIRED            6 OUTER ITERATIONS 
       AND A TOTAL OF          9 INNER ITERATIONS.
    ------------------------------------------------

 NO OUTPUT CONTROL FOR STRESS PERIOD   26   TIME STEP   16
 
 WELLS WITH REDUCED PUMPING FOR STRESS PERIOD    26 TIME STEP    16
   LAY   ROW   COL         APPL.Q          ACT.Q        GW-HEAD       CELL-BOT
     1     3    50  -0.138003E+01  -0.456003E+00   0.431112E-03   0.000000E+00
     1     5    55  -0.138003E+01  -0.363834E+00   0.373640E-03   0.000000E+00
 
 
 SOLVING FOR HEAD 
                                                   Max.-Head-Change                         Max.-Flux-Residual
  Residual-Control   Outer-Iter.   Inner-Iter.     Column Row Layer    Maximum-Head-Change  Column Row Layer    Maximum-Flux-Residual          L2-NORM 
          0                 1           2            73    7     1      -0.3268837886E-01      74    3    1        -0.1488964793E-02      0.3053141990E-01
          0                 2           2            73    7     1       0.3064520634E-02      74    3    1         0.1488857780E-03      0.2964946286E-02
          0                 3           2            73    7     1      -0.2602306893E-03      74    3    1        -0.1340050905E-04      0.2762599432E-03
          0                 4           1            73    1     1       0.1980016243E-04      70    4    1        -0.1257012698E-05      0.2357791933E-04
          0                 5           1            73    1     1      -0.1330363593E-05       2    4    1         0.1174282040E-06      0.1769450955E-05
          0                 6           1            72    7     1       0.7759540714E-07       2    4    1        -0.8774616589E-08      0.1136049527E-06

    ------------------------------------------------
       NWT REQUIRED            6 OUTER ITERATIONS 
       AND A TOTAL OF          9 INNER ITERATIONS.
    ------------------------------------------------

 NO OUTPUT CONTROL FOR STRESS PERIOD   26   TIME STEP   17
 
 WELLS WITH REDUCED PUMPING FOR STRESS PERIOD    26 TIME STEP    17
   LAY   ROW   COL         APPL.Q          ACT.Q        GW-HEAD       CELL-BOT
     1     3    50  -0.137998E+01  -0.455499E+00   0.430832E-03   0.000000E+00
     1     5    55  -0.137998E+01  -0.363303E+00   0.373328E-03   0.000000E+00
 
 
 SOLVING FOR HEAD 
                                                   Max.-Head-Change                         Max.-Flux-Residual
  Residual-Control   Outer-Iter.   Inner-Iter.     Column Row Layer    Maximum-Head-Change  Column Row Layer    Maximum-Flux-Residual          L2-NORM 
          0                 1           2            73    7     1      -0.3593231785E-01      73    3    1        -0.1488462466E-02      0.3051278287E-01
          0                 2           2            73    7     1       0.3359440699E-02      73    3    1         0.1488347084E-03      0.2962712196E-02
          0                 3           2            73    7     1      -0.2843331194E-03      73    3    1        -0.1339600645E-04      0.2761588815E-03
          0                 4           1            73    1     1       0.2155296672E-04      69    4    1        -0.1268074673E-05      0.2361761515E-04
          0                 5           1            73    1     1      -0.1441899361E-05       7    4    1         0.1194890622E-06      0.1776827853E-05
          0                 6           1            72    7     1       0.8374871524E-07       2    4    1        -0.8964565978E-08      0.1144360260E-06

    ------------------------------------------------
       NWT REQUIRED            6 OUTER ITERATIONS 
       AND A TOTAL OF          9 INNER ITERATIONS.
    ------------------------------------------------

 NO OUTPUT CONTROL FOR STRESS PERIOD   26   TIME STEP   18
 
 WELLS WITH REDUCED PUMPING FOR STRESS PERIOD    26 TIME STEP    18
   LAY   ROW   COL         APPL.Q          ACT.Q        GW-HEAD       CELL-BOT
     1     3    50  -0.137998E+01  -0.454911E+00   0.430498E-03   0.000000E+00
     1     5    55  -0.137998E+01  -0.362693E+00   0.372963E-03   0.000000E+00
 
 
 SOLVING FOR HEAD 
                                                   Max.-Head-Change                         Max.-Flux-Residual
  Residual-Control   Outer-Iter.   Inner-Iter.     Column Row Layer    Maximum-Head-Change  Column Row Layer    Maximum-Flux-Residual          L2-NORM 
          0                 1           2            73    7     1      -0.3949882793E-01      74    3    1        -0.1487246015E-02      0.3048963615E-01
          0                 2           2            73    7     1       0.3683168765E-02      74    3    1         0.1487125106E-03      0.2960374073E-02
          0                 3           2            73    7     1      -0.3107224695E-03      74    3    1        -0.1338510752E-04      0.2760691011E-03
          0                 4           1            73    1     1       0.2346451455E-04      69    4    1        -0.1285880836E-05      0.2365718084E-04
          0                 5           1            73    1     1      -0.1562624942E-05       7    4    1         0.1215418521E-06      0.1783485969E-05
          0                 6           1            73    7     1       0.9030764076E-07       2    4    1        -0.9142066659E-08      0.1151773610E-06

    ------------------------------------------------
       NWT REQUIRED            6 OUTER ITERATIONS 
       AND A TOTAL OF          9 INNER ITERATIONS.
    ------------------------------------------------

 NO OUTPUT CONTROL FOR STRESS PERIOD   26   TIME STEP   19
 
 WELLS WITH REDUCED PUMPING FOR STRESS PERIOD    26 TIME STEP    19
   LAY   ROW   COL         APPL.Q          ACT.Q        GW-HEAD       CELL-BOT
     1     3    50  -0.137997E+01  -0.454264E+00   0.430129E-03   0.000000E+00
     1     5    55  -0.137997E+01  -0.362071E+00   0.372590E-03   0.000000E+00
 
 
 SOLVING FOR HEAD 
                                                   Max.-Head-Change                         Max.-Flux-Residual
  Residual-Control   Outer-Iter.   Inner-Iter.     Column Row Layer    Maximum-Head-Change  Column Row Layer    Maximum-Flux-Residual          L2-NORM 
          0                 1           2            73    7     1      -0.4340791498E-01      73    3    1        -0.1486630041E-02      0.3046134780E-01
          0                 2           2            73    7     1       0.4037260705E-02      73    3    1         0.1486495917E-03      0.2957590278E-02
          0                 3           2            73    7     1      -0.3395023090E-03      73    3    1        -0.1337954043E-04      0.2759254066E-03
          0                 4           1            73    1     1       0.2554041278E-04      69    4    1        -0.1298899879E-05      0.2368988186E-04
          0                 5           1            73    1     1      -0.1692660475E-05       7    4    1         0.1235135869E-06      0.1788801488E-05
          0                 6           1            73    7     1       0.9732640693E-07       7    4    1        -0.9309435001E-08      0.1157851128E-06

    ------------------------------------------------
       NWT REQUIRED            6 OUTER ITERATIONS 
       AND A TOTAL OF          9 INNER ITERATIONS.
    ------------------------------------------------

 NO OUTPUT CONTROL FOR STRESS PERIOD   26   TIME STEP   20
 
 WELLS WITH REDUCED PUMPING FOR STRESS PERIOD    26 TIME STEP    20
   LAY   ROW   COL         APPL.Q          ACT.Q        GW-HEAD       CELL-BOT
     1     3    50  -0.138002E+01  -0.453599E+00   0.429740E-03   0.000000E+00
     1     5    55  -0.138002E+01  -0.361409E+00   0.372185E-03   0.000000E+00
 
 
 SOLVING FOR HEAD 
                                                   Max.-Head-Change                         Max.-Flux-Residual
  Residual-Control   Outer-Iter.   Inner-Iter.     Column Row Layer    Maximum-Head-Change  Column Row Layer    Maximum-Flux-Residual          L2-NORM 
          0                 1           2            73    7     1      -0.4769791859E-01      73    3    1        -0.1484937571E-02      0.3042700716E-01
          0                 2           2            73    7     1       0.4425893343E-02      73    3    1         0.1484797583E-03      0.2954234319E-02
          0                 3           2            73    7     1      -0.3710575948E-03      73    3    1        -0.1336436265E-04      0.2757083566E-03
          0                 4           1            73    7     1       0.2781041949E-04      69    4    1        -0.1309256922E-05      0.2371248190E-04
          0                 5           1            73    1     1      -0.1833751250E-05       7    4    1         0.1254189108E-06      0.1792212205E-05
          0                 6           1            73    7     1       0.1048664134E-06       7    4    1        -0.9470404905E-08      0.1162042567E-06

    ------------------------------------------------
       NWT REQUIRED            6 OUTER ITERATIONS 
       AND A TOTAL OF          9 INNER ITERATIONS.
    ------------------------------------------------

 NO OUTPUT CONTROL FOR STRESS PERIOD   26   TIME STEP   21
 
 WELLS WITH REDUCED PUMPING FOR STRESS PERIOD    26 TIME STEP    21
   LAY   ROW   COL         APPL.Q          ACT.Q        GW-HEAD       CELL-BOT
     1     3    50  -0.138000E+01  -0.452888E+00   0.429336E-03   0.000000E+00
     1     5    55  -0.138000E+01  -0.360693E+00   0.371757E-03   0.000000E+00
 
 
 SOLVING FOR HEAD 
                                                   Max.-Head-Change                         Max.-Flux-Residual
  Residual-Control   Outer-Iter.   Inner-Iter.     Column Row Layer    Maximum-Head-Change  Column Row Layer    Maximum-Flux-Residual          L2-NORM 
          0                 1           2            73    7     1      -0.5239853994E-01      73    3    1        -0.1483704658E-02      0.3038792222E-01
          0                 2           2            73    7     1       0.4850869274E-02      73    3    1         0.1483549100E-03      0.2950170962E-02
          0                 3           2            73    7     1      -0.4054692523E-03      73    3    1        -0.1335324680E-04      0.2754027858E-03
          0                 4           1            73    7     1       0.3027598982E-04      69    4    1        -0.1323636128E-05      0.2372508604E-04
          0                 5           1            73    7     1      -0.1985502148E-05       7    4    1         0.1272759462E-06      0.1793635703E-05
          0                 6           1            73    7     1       0.1128779177E-06       7    4    1        -0.9620038099E-08      0.1164234637E-06

    ------------------------------------------------
       NWT REQUIRED            6 OUTER ITERATIONS 
       AND A TOTAL OF          9 INNER ITERATIONS.
    ------------------------------------------------

 NO OUTPUT CONTROL FOR STRESS PERIOD   26   TIME STEP   22
 
 WELLS WITH REDUCED PUMPING FOR STRESS PERIOD    26 TIME STEP    22
   LAY   ROW   COL         APPL.Q          ACT.Q        GW-HEAD       CELL-BOT
     1     3    50  -0.137999E+01  -0.452120E+00   0.428899E-03   0.000000E+00
     1     5    55  -0.137999E+01  -0.359917E+00   0.371291E-03   0.000000E+00
 
 
 SOLVING FOR HEAD 
                                                   Max.-Head-Change                         Max.-Flux-Residual
  Residual-Control   Outer-Iter.   Inner-Iter.     Column Row Layer    Maximum-Head-Change  Column Row Layer    Maximum-Flux-Residual          L2-NORM 
          0                 1           3            73    1     1      -0.5754846918E-01      73    3    1        -0.1481848982E-02      0.3034440509E-01
          0                 2           2            73    7     1       0.5316585803E-02      73    3    1         0.1481677119E-03      0.2945648790E-02
          0                 3           2            73    7     1      -0.4431577979E-03      73    3    1        -0.1333652730E-04      0.2749938794E-03
          0                 4           1            73    7     1       0.3297069173E-04      68    4    1        -0.1317298068E-05      0.2372165692E-04
          0                 5           1            73    7     1      -0.2149874364E-05       9    4    1         0.1290740954E-06      0.1792055545E-05
          0                 6           1            71    7     1       0.1214927178E-06       7    4    1        -0.9748063690E-08      0.1163529043E-06

    ------------------------------------------------
       NWT REQUIRED            6 OUTER ITERATIONS 
       AND A TOTAL OF         10 INNER ITERATIONS.
    ------------------------------------------------

 NO OUTPUT CONTROL FOR STRESS PERIOD   26   TIME STEP   23
 
 WELLS WITH REDUCED PUMPING FOR STRESS PERIOD    26 TIME STEP    23
   LAY   ROW   COL         APPL.Q          ACT.Q        GW-HEAD       CELL-BOT
     1     3    50  -0.137998E+01  -0.451287E+00   0.428423E-03   0.000000E+00
     1     5    55  -0.137998E+01  -0.359075E+00   0.370785E-03   0.000000E+00
 
 
 SOLVING FOR HEAD 
                                                   Max.-Head-Change                         Max.-Flux-Residual
  Residual-Control   Outer-Iter.   Inner-Iter.     Column Row Layer    Maximum-Head-Change  Column Row Layer    Maximum-Flux-Residual          L2-NORM 
          0                 1           3            73    1     1      -0.6318625753E-01      73    3    1        -0.1479430033E-02      0.3030435650E-01
          0                 2           2            73    7     1       0.5825096596E-02      73    3    1         0.1479248598E-03      0.2940579882E-02
          0                 3           2            73    7     1      -0.4841816312E-03      73    3    1        -0.1331481070E-04      0.2741332500E-03
          0                 4           1            73    7     1       0.3589115711E-04      68    4    1        -0.1321967118E-05      0.2363962328E-04
          0                 5           1            73    7     1      -0.2325696037E-05      13    4    1         0.1305763178E-06      0.1780426667E-05
          0                 6           1            71    7     1       0.1305711746E-06       2    4    1        -0.9861391703E-08      0.1154548501E-06

    ------------------------------------------------
       NWT REQUIRED            6 OUTER ITERATIONS 
       AND A TOTAL OF         10 INNER ITERATIONS.
    ------------------------------------------------

 NO OUTPUT CONTROL FOR STRESS PERIOD   26   TIME STEP   24
 
 WELLS WITH REDUCED PUMPING FOR STRESS PERIOD    26 TIME STEP    24
   LAY   ROW   COL         APPL.Q          ACT.Q        GW-HEAD       CELL-BOT
     1     3    50  -0.137999E+01  -0.450384E+00   0.427904E-03   0.000000E+00
     1     5    55  -0.137999E+01  -0.358160E+00   0.370232E-03   0.000000E+00
 
 
 SOLVING FOR HEAD 
                                                   Max.-Head-Change                         Max.-Flux-Residual
  Residual-Control   Outer-Iter.   Inner-Iter.     Column Row Layer    Maximum-Head-Change  Column Row Layer    Maximum-Flux-Residual          L2-NORM 
          0                 1           3            73    1     1      -0.6934025183E-01      73    3    1        -0.1477224088E-02      0.3026029234E-01
          0                 2           2            73    7     1       0.6382254363E-02      73    3    1         0.1477007721E-03      0.2935982968E-02
          0                 3           2            73    7     1      -0.5292619380E-03      73    3    1        -0.1329479614E-04      0.2732514018E-03
          0                 4           1            73    7     1       0.3910407998E-04      68    4    1        -0.1326968761E-05      0.2353050048E-04
          0                 5           1            73    7     1      -0.2516893266E-05       1    4    1         0.1319996628E-06      0.1762875584E-05
          0                 6           1            71    7     1       0.1402485884E-06      14    4    1        -0.9921340194E-08      0.1139733493E-06

    ------------------------------------------------
       NWT REQUIRED            6 OUTER ITERATIONS 
       AND A TOTAL OF         10 INNER ITERATIONS.
    ------------------------------------------------

 NO OUTPUT CONTROL FOR STRESS PERIOD   26   TIME STEP   25
 
 WELLS WITH REDUCED PUMPING FOR STRESS PERIOD    26 TIME STEP    25
   LAY   ROW   COL         APPL.Q          ACT.Q        GW-HEAD       CELL-BOT
     1     3    50  -0.138001E+01  -0.449402E+00   0.427337E-03   0.000000E+00
     1     5    55  -0.138001E+01  -0.357167E+00   0.369629E-03   0.000000E+00
 
 
 SOLVING FOR HEAD 
                                                   Max.-Head-Change                         Max.-Flux-Residual
  Residual-Control   Outer-Iter.   Inner-Iter.     Column Row Layer    Maximum-Head-Change  Column Row Layer    Maximum-Flux-Residual          L2-NORM 
          0                 1           3            73    1     1      -0.7606505681E-01      73    3    1        -0.1473055209E-02      0.3020655281E-01
          0                 2           2            73    7     1       0.6988165902E-02      73    3    1         0.1472839990E-03      0.2930602772E-02
          0                 3           2            73    7     1      -0.5780369834E-03      73    3    1        -0.1325744493E-04      0.2724578053E-03
          0                 4           1            73    7     1       0.4255762692E-04      15    4    1        -0.1322106716E-05      0.2345018753E-04
          0                 5           1            73    7     1      -0.2718054262E-05      15    4    1         0.1341195599E-06      0.1746377167E-05
          0                 6           1            71    7     1       0.1504254965E-06      15    4    1        -0.1002223016E-07      0.1125085417E-06

    ------------------------------------------------
       NWT REQUIRED            6 OUTER ITERATIONS 
       AND A TOTAL OF         10 INNER ITERATIONS.
    ------------------------------------------------

 NO OUTPUT CONTROL FOR STRESS PERIOD   26   TIME STEP   26
 
 WELLS WITH REDUCED PUMPING FOR STRESS PERIOD    26 TIME STEP    26
   LAY   ROW   COL         APPL.Q          ACT.Q        GW-HEAD       CELL-BOT
     1     3    50  -0.138001E+01  -0.448329E+00   0.426723E-03   0.000000E+00
     1     5    55  -0.138001E+01  -0.356091E+00   0.368980E-03   0.000000E+00
 
 
 SOLVING FOR HEAD 
                                                   Max.-Head-Change                         Max.-Flux-Residual
  Residual-Control   Outer-Iter.   Inner-Iter.     Column Row Layer    Maximum-Head-Change  Column Row Layer    Maximum-Flux-Residual          L2-NORM 
          0                 1           3            73    1     1      -0.8330998594E-01      73    3    1        -0.1470062948E-02      0.3014187989E-01
          0                 2           2            73    7     1       0.7639321030E-02      73    3    1         0.1469767232E-03      0.2924180335E-02
          0                 3           2            72    7     1      -0.6303402914E-03      73    3    1        -0.1322999900E-04      0.2716629575E-03
          0                 4           1            72    7     1       0.4626386295E-04      17    4    1        -0.1320103330E-05      0.2338233034E-04
          0                 5           1            71    1     1      -0.2934222501E-05      17    4    1         0.1345415370E-06      0.1729150088E-05
          0                 6           1            71    7     1       0.1609414995E-06      16    4    1        -0.9981199867E-08      0.1109550685E-06

    ------------------------------------------------
       NWT REQUIRED            6 OUTER ITERATIONS 
       AND A TOTAL OF         10 INNER ITERATIONS.
    ------------------------------------------------

 NO OUTPUT CONTROL FOR STRESS PERIOD   26   TIME STEP   27
 
 WELLS WITH REDUCED PUMPING FOR STRESS PERIOD    26 TIME STEP    27
   LAY   ROW   COL         APPL.Q          ACT.Q        GW-HEAD       CELL-BOT
     1     3    50  -0.138000E+01  -0.447169E+00   0.426059E-03   0.000000E+00
     1     5    55  -0.138000E+01  -0.354915E+00   0.368271E-03   0.000000E+00
 
 
 SOLVING FOR HEAD 
                                                   Max.-Head-Change                         Max.-Flux-Residual
  Residual-Control   Outer-Iter.   Inner-Iter.     Column Row Layer    Maximum-Head-Change  Column Row Layer    Maximum-Flux-Residual          L2-NORM 
          0                 1           3            73    7     1      -0.9115587181E-01      72    3    1        -0.1462487294E-02      0.3006314298E-01
          0                 2           2            72    7     1       0.8343917637E-02      72    5    1         0.1462154288E-03      0.2916715188E-02
          0                 3           2            10    1     1      -0.6893766360E-03      72    3    1        -0.1316344150E-04      0.2707528950E-03
          0                 4           1             4    1     1       0.5035154680E-04      18    4    1        -0.1330771472E-05      0.2330153532E-04
          0                 5           1            71    1     1      -0.3161838048E-05      18    4    1         0.1341693867E-06      0.1708004557E-05
          0                 6           1            71    7     1       0.1715481533E-06      18    4    1        -0.9984447047E-08      0.1090995419E-06

    ------------------------------------------------
       NWT REQUIRED            6 OUTER ITERATIONS 
       AND A TOTAL OF         10 INNER ITERATIONS.
    ------------------------------------------------

 NO OUTPUT CONTROL FOR STRESS PERIOD   26   TIME STEP   28
 
 WELLS WITH REDUCED PUMPING FOR STRESS PERIOD    26 TIME STEP    28
   LAY   ROW   COL         APPL.Q          ACT.Q        GW-HEAD       CELL-BOT
     1     3    50  -0.138000E+01  -0.445915E+00   0.425339E-03   0.000000E+00
     1     5    55  -0.138000E+01  -0.353643E+00   0.367501E-03   0.000000E+00
 
 
 SOLVING FOR HEAD 
                                                   Max.-Head-Change                         Max.-Flux-Residual
  Residual-Control   Outer-Iter.   Inner-Iter.     Column Row Layer    Maximum-Head-Change  Column Row Layer    Maximum-Flux-Residual          L2-NORM 
          0                 1           3            73    7     1      -0.9967025746E-01      73    3    1        -0.1454379690E-02      0.2997226011E-01
          0                 2           2             9    7     1       0.9123244083E-02      73    6    1         0.1454045261E-03      0.2907699226E-02
          0                 3           2            10    1     1      -0.7566840082E-03      72    3    1        -0.1308978651E-04      0.2696335672E-03
          0                 4           1             4    1     1       0.5507468895E-04      19    4    1        -0.1335479130E-05      0.2319309020E-04
          0                 5           1            71    1     1      -0.3396920924E-05      19    4    1         0.1360248945E-06      0.1681131391E-05
          0                 6           1            69    1     1       0.1822847233E-06      74    4    1        -0.9957512148E-08      0.1068380562E-06

    ------------------------------------------------
       NWT REQUIRED            6 OUTER ITERATIONS 
       AND A TOTAL OF         10 INNER ITERATIONS.
    ------------------------------------------------

 NO OUTPUT CONTROL FOR STRESS PERIOD   26   TIME STEP   29
 
 WELLS WITH REDUCED PUMPING FOR STRESS PERIOD    26 TIME STEP    29
   LAY   ROW   COL         APPL.Q          ACT.Q        GW-HEAD       CELL-BOT
     1     3    50  -0.137999E+01  -0.444559E+00   0.424562E-03   0.000000E+00
     1     5    55  -0.137999E+01  -0.352270E+00   0.366671E-03   0.000000E+00
 
 
 SOLVING FOR HEAD 
                                                   Max.-Head-Change                         Max.-Flux-Residual
  Residual-Control   Outer-Iter.   Inner-Iter.     Column Row Layer    Maximum-Head-Change  Column Row Layer    Maximum-Flux-Residual          L2-NORM 
          0                 1           3            73    7     1      -0.1089094837E+00      73    1    1        -0.1445799223E-02      0.2986894584E-01
          0                 2           3            10    1     1       0.1001696309E-01      73    1    1         0.1445484346E-03      0.2897549281E-02
          0                 3           2            11    1     1      -0.8301693277E-03      73    1    1        -0.1301157448E-04      0.2686134755E-03
          0                 4           1             3    1     1       0.6018496049E-04      20    4    1        -0.1339993080E-05      0.2310540090E-04
          0                 5           1            71    7     1      -0.3641137273E-05      21    4    1         0.1355843899E-06      0.1653431230E-05
          0                 6           1            69    7     1       0.1937630408E-06      74    4    1        -0.9989761907E-08      0.1046154460E-06

    ------------------------------------------------
       NWT REQUIRED            6 OUTER ITERATIONS 
       AND A TOTAL OF         11 INNER ITERATIONS.
    ------------------------------------------------

 NO OUTPUT CONTROL FOR STRESS PERIOD   26   TIME STEP   30
 
 WELLS WITH REDUCED PUMPING FOR STRESS PERIOD    26 TIME STEP    30
   LAY   ROW   COL         APPL.Q          ACT.Q        GW-HEAD       CELL-BOT
     1     3    50  -0.137999E+01  -0.443089E+00   0.423716E-03   0.000000E+00
     1     5    55  -0.137999E+01  -0.350785E+00   0.365770E-03   0.000000E+00
 



 STREAM LISTING     PERIOD     26   STEP       30

 LAYER ROW COL. STREAM  RCH.   FLOW INTO    STREAM     FLOW OUT OF   OVRLND.    DIRECT     STREAM      STREAM      STREAM     STREAM  STREAMBED   FLOW TO   CHNG. UNSAT. 
                SEG.NO.  NO.   STRM. RCH.    LOSS       STRM. RCH.   RUNOFF     PRECIP       ET         HEAD        DEPTH      WIDTH  CONDCTNC.   WAT. TAB.

   1    4    1     1     1    5.1200E-01  4.2647E-04   5.1157E-01  0.000E+00  0.000E+00  0.000E+00  1.40390E+02  5.403E-01  2.459E+00  4.099E-04  3.670E-04  5.947E-05
   1    4    2     1     2    5.1157E-01  4.2632E-04   5.1115E-01  0.000E+00  0.000E+00  0.000E+00  1.40090E+02  5.401E-01  2.459E+00  4.099E-04  3.668E-04  5.957E-05
   1    4    3     1     3    5.1115E-01  4.2617E-04   5.1072E-01  0.000E+00  0.000E+00  0.000E+00  1.39790E+02  5.399E-01  2.458E+00  4.098E-04  3.665E-04  5.966E-05
   1    4    4     1     4    5.1072E-01  4.2602E-04   5.1030E-01  0.000E+00  0.000E+00  0.000E+00  1.39490E+02  5.397E-01  2.458E+00  4.097E-04  3.663E-04  5.976E-05
   1    4    5     1     5    5.1030E-01  4.2586E-04   5.0987E-01  0.000E+00  0.000E+00  0.000E+00  1.39190E+02  5.395E-01  2.458E+00  4.097E-04  3.660E-04  5.985E-05
   1    4    6     1     6    5.0987E-01  4.2571E-04   5.0944E-01  0.000E+00  0.000E+00  0.000E+00  1.38889E+02  5.393E-01  2.458E+00  4.096E-04  3.658E-04  5.995E-05
   1    4    7     1     7    5.0944E-01  4.2556E-04   5.0902E-01  0.000E+00  0.000E+00  0.000E+00  1.38589E+02  5.391E-01  2.458E+00  4.095E-04  3.655E-04  6.005E-05
   1    4    8     1     8    5.0902E-01  4.2541E-04   5.0859E-01  0.000E+00  0.000E+00  0.000E+00  1.38289E+02  5.389E-01  2.457E+00  4.095E-04  3.653E-04  6.015E-05
   1    4    9     1     9    5.0859E-01  4.2526E-04   5.0817E-01  0.000E+00  0.000E+00  0.000E+00  1.37989E+02  5.387E-01  2.457E+00  4.094E-04  3.650E-04  6.026E-05
   1    4   10     1    10    5.0817E-01  4.2511E-04   5.0774E-01  0.000E+00  0.000E+00  0.000E+00  1.37689E+02  5.385E-01  2.457E+00  4.093E-04  3.647E-04  6.036E-05
   1    4   11     1    11    5.0774E-01  4.2495E-04   5.0732E-01  0.000E+00  0.000E+00  0.000E+00  1.37388E+02  5.383E-01  2.457E+00  4.093E-04  3.645E-04  6.047E-05
   1    4   12     1    12    5.0732E-01  4.2480E-04   5.0689E-01  0.000E+00  0.000E+00  0.000E+00  1.37088E+02  5.381E-01  2.456E+00  4.092E-04  3.642E-04  6.057E-05
   1    4   13     1    13    5.0689E-01  4.2465E-04   5.0647E-01  0.000E+00  0.000E+00  0.000E+00  1.36788E+02  5.379E-01  2.456E+00  4.091E-04  3.640E-04  6.067E-05
   1    4   14     1    14    5.0647E-01  4.2450E-04   5.0604E-01  0.000E+00  0.000E+00  0.000E+00  1.36488E+02  5.377E-01  2.456E+00  4.091E-04  3.637E-04  6.077E-05
   1    4   15     1    15    5.0604E-01  4.2435E-04   5.0562E-01  0.000E+00  0.000E+00  0.000E+00  1.36188E+02  5.375E-01  2.456E+00  4.090E-04  3.635E-04  6.085E-05
   1    4   16     1    16    5.0562E-01  4.2420E-04   5.0519E-01  0.000E+00  0.000E+00  0.000E+00  1.35887E+02  5.373E-01  2.455E+00  4.089E-04  3.633E-04  6.094E-05
   1    4   17     1    17    5.0519E-01  4.2405E-04   5.0477E-01  0.000E+00  0.000E+00  0.000E+00  1.35587E+02  5.371E-01  2.455E+00  4.089E-04  3.630E-04  6.102E-05
   1    4   18     1    18    5.0477E-01  4.2389E-04   5.0435E-01  0.000E+00  0.000E+00  0.000E+00  1.35287E+02  5.369E-01  2.455E+00  4.088E-04  3.627E-04  6.115E-05
   1    4   19     1    19    5.0435E-01  4.2374E-04   5.0392E-01  0.000E+00  0.000E+00  0.000E+00  1.34987E+02  5.367E-01  2.455E+00  4.087E-04  4.001E-04  2.364E-05
   1    4   20     1    20    5.0392E-01  4.2359E-04   5.0350E-01  0.000E+00  0.000E+00  0.000E+00  1.34686E+02  5.365E-01  2.454E+00  4.087E-04  4.197E-04  3.865E-06
   1    4   21     1    21    5.0350E-01  4.2344E-04   5.0308E-01  0.000E+00  0.000E+00  0.000E+00  1.34386E+02  5.363E-01  2.454E+00  4.086E-04  4.197E-04  3.763E-06
   1    4   22     1    22    5.0308E-01  4.2329E-04   5.0265E-01  0.000E+00  0.000E+00  0.000E+00  1.34086E+02  5.361E-01  2.454E+00  4.085E-04  4.196E-04  3.669E-06
   1    4   23     1    23    5.0265E-01  4.2314E-04   5.0223E-01  0.000E+00  0.000E+00  0.000E+00  1.33786E+02  5.359E-01  2.454E+00  4.085E-04  4.196E-04  3.563E-06
   1    4   24     1    24    5.0223E-01  4.2299E-04   5.0181E-01  0.000E+00  0.000E+00  0.000E+00  1.33486E+02  5.357E-01  2.453E+00  4.084E-04  4.196E-04  3.433E-06
   1    4   25     1    25    5.0181E-01  4.2284E-04   5.0138E-01  0.000E+00  0.000E+00  0.000E+00  1.33185E+02  5.355E-01  2.453E+00  4.084E-04  4.196E-04  3.268E-06
   1    4   26     1    26    5.0138E-01  4.2269E-04   5.0096E-01  0.000E+00  0.000E+00  0.000E+00  1.32885E+02  5.353E-01  2.453E+00  4.083E-04  4.196E-04  3.060E-06
   1    4   27     1    27    5.0096E-01  4.2253E-04   5.0054E-01  0.000E+00  0.000E+00  0.000E+00  1.32585E+02  5.351E-01  2.453E+00  4.082E-04  4.197E-04  2.803E-06
   1    4   28     1    28    5.0054E-01  4.2238E-04   5.0012E-01  0.000E+00  0.000E+00  0.000E+00  1.32285E+02  5.349E-01  2.452E+00  4.082E-04  4.199E-04  2.488E-06
   1    4   29     1    29    5.0012E-01  4.2223E-04   4.9969E-01  0.000E+00  0.000E+00  0.000E+00  1.31985E+02  5.347E-01  2.452E+00  4.081E-04  4.201E-04  2.108E-06
   1    4   30     1    30    4.9969E-01  4.2208E-04   4.9927E-01  0.000E+00  0.000E+00  0.000E+00  1.31684E+02  5.345E-01  2.452E+00  4.080E-04  4.204E-04  1.654E-06
   1    4   31     1    31    4.9927E-01  4.2193E-04   4.9885E-01  0.000E+00  0.000E+00  0.000E+00  1.31384E+02  5.343E-01  2.452E+00  4.080E-04  4.208E-04  1.118E-06
   1    4   32     1    32    4.9885E-01  4.2178E-04   4.9843E-01  0.000E+00  0.000E+00  0.000E+00  1.31084E+02  5.341E-01  2.451E+00  4.079E-04  4.213E-04  4.921E-07
   1    4   33     1    33    4.9843E-01  4.2163E-04   4.9801E-01  0.000E+00  0.000E+00  0.000E+00  1.30784E+02  5.339E-01  2.451E+00  4.078E-04  4.219E-04 -2.389E-07
   1    4   34     1    34    4.9801E-01  4.2148E-04   4.9758E-01  0.000E+00  0.000E+00  0.000E+00  1.30484E+02  5.337E-01  2.451E+00  4.078E-04  4.226E-04 -1.085E-06
   1    4   35     1    35    4.9758E-01  4.2133E-04   4.9716E-01  0.000E+00  0.000E+00  0.000E+00  1.30183E+02  5.335E-01  2.451E+00  4.077E-04  4.234E-04 -2.059E-06
   1    4   36     1    36    4.9716E-01  4.2118E-04   4.9674E-01  0.000E+00  0.000E+00  0.000E+00  1.29883E+02  5.332E-01  2.450E+00  4.076E-04  4.243E-04 -3.168E-06
   1    4   37     1    37    4.9674E-01  4.2103E-04   4.9632E-01  0.000E+00  0.000E+00  0.000E+00  1.29583E+02  5.330E-01  2.450E+00  4.076E-04  4.254E-04 -4.408E-06
   1    4   38     1    38    4.9632E-01  4.2088E-04   4.9590E-01  0.000E+00  0.000E+00  0.000E+00  1.29283E+02  5.328E-01  2.450E+00  4.075E-04  4.267E-04 -5.785E-06
   1    4   39     1    39    4.9590E-01  4.2073E-04   4.9548E-01  0.000E+00  0.000E+00  0.000E+00  1.28983E+02  5.326E-01  2.450E+00  4.074E-04  4.511E-04 -3.037E-05
   1    4   40     1    40    4.9548E-01  4.2058E-04   4.9506E-01  0.000E+00  0.000E+00  0.000E+00  1.28682E+02  5.324E-01  2.450E+00  4.074E-04  4.722E-04 -5.167E-05
   1    4   41     1    41    4.9506E-01  4.2042E-04   4.9464E-01  0.000E+00  0.000E+00  0.000E+00  1.28382E+02  5.322E-01  2.449E+00  4.073E-04  5.430E-04 -1.225E-04
   1    4   42     1    42    4.9464E-01  4.2027E-04   4.9422E-01  0.000E+00  0.000E+00  0.000E+00  1.28082E+02  5.320E-01  2.449E+00  4.072E-04  5.718E-04 -1.516E-04
   1    4   43     1    43    4.9422E-01  4.2012E-04   4.9380E-01  0.000E+00  0.000E+00  0.000E+00  1.27782E+02  5.318E-01  2.449E+00  4.072E-04  5.954E-04 -1.752E-04
   1    4   44     1    44    4.9380E-01  4.1997E-04   4.9338E-01  0.000E+00  0.000E+00  0.000E+00  1.27482E+02  5.316E-01  2.449E+00  4.071E-04  6.792E-04 -2.592E-04
   1    4   45     1    45    4.9338E-01  4.1982E-04   4.9296E-01  0.000E+00  0.000E+00  0.000E+00  1.27181E+02  5.314E-01  2.448E+00  4.070E-04  7.155E-04 -2.956E-04
   1    4   46     1    46    4.9296E-01  4.1967E-04   4.9254E-01  0.000E+00  0.000E+00  0.000E+00  1.26881E+02  5.312E-01  2.448E+00  4.070E-04  7.557E-04 -3.361E-04
   1    4   47     1    47    4.9254E-01  4.1952E-04   4.9212E-01  0.000E+00  0.000E+00  0.000E+00  1.26581E+02  5.310E-01  2.448E+00  4.069E-04  7.989E-04 -3.794E-04
   1    4   48     1    48    4.9212E-01  4.1937E-04   4.9170E-01  0.000E+00  0.000E+00  0.000E+00  1.26281E+02  5.308E-01  2.448E+00  4.068E-04  8.468E-04 -4.274E-04
   1    4   49     1    49    4.9170E-01  4.1922E-04   4.9128E-01  0.000E+00  0.000E+00  0.000E+00  1.25981E+02  5.306E-01  2.447E+00  4.068E-04  8.603E-04 -4.411E-04
   1    4   50     1    50    4.9128E-01  4.1907E-04   4.9086E-01  0.000E+00  0.000E+00  0.000E+00  1.25680E+02  5.304E-01  2.447E+00  4.067E-04  9.527E-04 -5.337E-04
   1    4   51     1    51    4.9086E-01  4.1892E-04   4.9044E-01  0.000E+00  0.000E+00  0.000E+00  1.25380E+02  5.302E-01  2.447E+00  4.066E-04  9.453E-04 -5.264E-04
   1    4   52     1    52    4.9044E-01  4.1877E-04   4.9002E-01  0.000E+00  0.000E+00  0.000E+00  1.25080E+02  5.300E-01  2.447E+00  4.066E-04  9.412E-04 -5.225E-04
   1    4   53     1    53    4.9002E-01  4.1862E-04   4.8961E-01  0.000E+00  0.000E+00  0.000E+00  1.24780E+02  5.298E-01  2.446E+00  4.065E-04  9.398E-04 -5.213E-04
   1    4   54     1    54    4.8961E-01  4.1847E-04   4.8919E-01  0.000E+00  0.000E+00  0.000E+00  1.24480E+02  5.296E-01  2.446E+00  4.064E-04  9.414E-04 -5.230E-04
   1    4   55     1    55    4.8919E-01  4.1832E-04   4.8877E-01  0.000E+00  0.000E+00  0.000E+00  1.24179E+02  5.294E-01  2.446E+00  4.064E-04  9.471E-04 -5.288E-04
   1    4   56     1    56    4.8877E-01  4.1817E-04   4.8835E-01  0.000E+00  0.000E+00  0.000E+00  1.23879E+02  5.292E-01  2.446E+00  4.063E-04  8.521E-04 -4.340E-04
   1    4   57     1    57    4.8835E-01  4.1802E-04   4.8793E-01  0.000E+00  0.000E+00  0.000E+00  1.23579E+02  5.290E-01  2.445E+00  4.062E-04  8.382E-04 -4.202E-04
   1    4   58     1    58    4.8793E-01  4.1787E-04   4.8751E-01  0.000E+00  0.000E+00  0.000E+00  1.23279E+02  5.288E-01  2.445E+00  4.062E-04  7.952E-04 -3.774E-04
   1    4   59     1    59    4.8751E-01  4.1772E-04   4.8710E-01  0.000E+00  0.000E+00  0.000E+00  1.22979E+02  5.286E-01  2.445E+00  4.061E-04  7.495E-04 -3.318E-04
   1    4   60     1    60    4.8710E-01  4.1757E-04   4.8668E-01  0.000E+00  0.000E+00  0.000E+00  1.22678E+02  5.284E-01  2.445E+00  4.060E-04  7.090E-04 -2.915E-04
   1    4   61     1    61    4.8668E-01  4.1742E-04   4.8626E-01  0.000E+00  0.000E+00  0.000E+00  1.22378E+02  5.282E-01  2.444E+00  4.060E-04  6.733E-04 -2.559E-04
   1    4   62     1    62    4.8626E-01  4.1727E-04   4.8584E-01  0.000E+00  0.000E+00  0.000E+00  1.22078E+02  5.280E-01  2.444E+00  4.059E-04  6.204E-04 -2.031E-04
   1    4   63     1    63    4.8584E-01  4.1712E-04   4.8543E-01  0.000E+00  0.000E+00  0.000E+00  1.21778E+02  5.278E-01  2.444E+00  4.058E-04  5.559E-04 -1.387E-04
   1    4   64     1    64    4.8543E-01  4.1697E-04   4.8501E-01  0.000E+00  0.000E+00  0.000E+00  1.21478E+02  5.276E-01  2.444E+00  4.058E-04  5.372E-04 -1.203E-04
   1    4   65     1    65    4.8501E-01  4.1682E-04   4.8459E-01  0.000E+00  0.000E+00  0.000E+00  1.21177E+02  5.274E-01  2.443E+00  4.057E-04  5.059E-04 -8.912E-05
   1    4   66     1    66    4.8459E-01  4.1667E-04   4.8418E-01  0.000E+00  0.000E+00  0.000E+00  1.20877E+02  5.272E-01  2.443E+00  4.056E-04  4.969E-04 -8.018E-05
   1    4   67     1    67    4.8418E-01  4.1652E-04   4.8376E-01  0.000E+00  0.000E+00  0.000E+00  1.20577E+02  5.270E-01  2.443E+00  4.056E-04  4.166E-04 -6.276E-08
   1    4   68     1    68    4.8376E-01  4.1637E-04   4.8334E-01  0.000E+00  0.000E+00  0.000E+00  1.20277E+02  5.268E-01  2.443E+00  4.055E-04  4.089E-04  7.498E-06
   1    4   69     1    69    4.8334E-01  4.1622E-04   4.8293E-01  0.000E+00  0.000E+00  0.000E+00  1.19977E+02  5.266E-01  2.443E+00  4.054E-04  4.077E-04  8.530E-06
   1    4   70     1    70    4.8293E-01  4.1607E-04   4.8251E-01  0.000E+00  0.000E+00  0.000E+00  1.19676E+02  5.264E-01  2.442E+00  4.054E-04  4.067E-04  9.363E-06
   1    4   71     1    71    4.8251E-01  4.1592E-04   4.8210E-01  0.000E+00  0.000E+00  0.000E+00  1.19376E+02  5.262E-01  2.442E+00  4.053E-04  4.060E-04  9.957E-06
   1    4   72     1    72    4.8210E-01  4.1577E-04   4.8168E-01  0.000E+00  0.000E+00  0.000E+00  1.19076E+02  5.260E-01  2.442E+00  4.052E-04  4.055E-04  1.031E-05
   1    4   73     1    73    4.8168E-01  4.1562E-04   4.8126E-01  0.000E+00  0.000E+00  0.000E+00  1.18776E+02  5.258E-01  2.442E+00  4.052E-04  4.052E-04  1.043E-05
   1    4   74     1    74    4.8126E-01  4.1547E-04   4.8085E-01  0.000E+00  0.000E+00  0.000E+00  1.18476E+02  5.256E-01  2.441E+00  4.051E-04  4.052E-04  1.032E-05
   1    4   75     1    75    4.8085E-01  4.1532E-04   4.8043E-01  0.000E+00  0.000E+00  0.000E+00  1.18175E+02  5.254E-01  2.441E+00  4.051E-04  4.053E-04  9.988E-06
   1    4   76     1    76    4.8043E-01  4.1517E-04   4.8002E-01  0.000E+00  0.000E+00  0.000E+00  1.17875E+02  5.252E-01  2.441E+00  4.050E-04  4.057E-04  9.436E-06
   1    4   77     1    77    4.8002E-01  4.1503E-04   4.7960E-01  0.000E+00  0.000E+00  0.000E+00  1.17575E+02  5.250E-01  2.441E+00  4.049E-04  4.064E-04  8.664E-06
   1    4   78     1    78    4.7960E-01  4.1488E-04   4.7919E-01  0.000E+00  0.000E+00  0.000E+00  1.17275E+02  5.248E-01  2.440E+00  4.049E-04  4.072E-04  7.677E-06
   1    4   79     1    79    4.7919E-01  4.1473E-04   4.7877E-01  0.000E+00  0.000E+00  0.000E+00  1.16975E+02  5.246E-01  2.440E+00  4.048E-04  4.083E-04  6.471E-06
   1    4   80     1    80    4.7877E-01  4.1458E-04   4.7836E-01  0.000E+00  0.000E+00  0.000E+00  1.16674E+02  5.244E-01  2.440E+00  4.047E-04  4.095E-04  5.052E-06
   1    4   81     1    81    4.7836E-01  4.1443E-04   4.7795E-01  0.000E+00  0.000E+00  0.000E+00  1.16374E+02  5.241E-01  2.440E+00  4.047E-04  4.110E-04  3.419E-06
   1    4   82     1    82    4.7795E-01  4.1428E-04   4.7753E-01  0.000E+00  0.000E+00  0.000E+00  1.16074E+02  5.239E-01  2.439E+00  4.046E-04  4.127E-04  1.579E-06
   1    4   83     1    83    4.7753E-01  4.1413E-04   4.7712E-01  0.000E+00  0.000E+00  0.000E+00  1.15774E+02  5.237E-01  2.439E+00  4.045E-04  4.146E-04 -4.518E-07
   1    4   84     1    84    4.7712E-01  4.1398E-04   4.7670E-01  0.000E+00  0.000E+00  0.000E+00  1.15474E+02  5.235E-01  2.439E+00  4.045E-04  3.567E-04  5.729E-05
   1    4   85     1    85    4.7670E-01  4.1383E-04   4.7629E-01  0.000E+00  0.000E+00  0.000E+00  1.15173E+02  5.233E-01  2.439E+00  4.044E-04  3.586E-04  5.521E-05
   1    4   86     1    86    4.7629E-01  4.1368E-04   4.7588E-01  0.000E+00  0.000E+00  0.000E+00  1.14873E+02  5.231E-01  2.438E+00  4.043E-04  3.607E-04  5.301E-05
   1    4   87     1    87    4.7588E-01  4.1353E-04   4.7546E-01  0.000E+00  0.000E+00  0.000E+00  1.14573E+02  5.229E-01  2.438E+00  4.043E-04  3.629E-04  5.060E-05
   1    4   88     1    88    4.7546E-01  4.1338E-04   4.7505E-01  0.000E+00  0.000E+00  0.000E+00  1.14273E+02  5.227E-01  2.438E+00  4.042E-04  3.659E-04  4.749E-05
   1    4   89     1    89    4.7505E-01  4.1323E-04   4.7463E-01  0.000E+00  0.000E+00  0.000E+00  1.13973E+02  5.225E-01  2.438E+00  4.041E-04  3.690E-04  4.425E-05
   1    4   90     1    90    4.7463E-01  4.1308E-04   4.7422E-01  0.000E+00  0.000E+00  0.000E+00  1.13672E+02  5.223E-01  2.437E+00  4.041E-04  3.723E-04  4.079E-05
   1    4   91     1    91    4.7422E-01  4.1294E-04   4.7381E-01  0.000E+00  0.000E+00  0.000E+00  1.13372E+02  5.221E-01  2.437E+00  4.040E-04  3.758E-04  3.710E-05
   1    4   92     1    92    4.7381E-01  4.1279E-04   4.7340E-01  0.000E+00  0.000E+00  0.000E+00  1.13072E+02  5.219E-01  2.437E+00  4.039E-04  3.796E-04  3.320E-05
   1    4   93     1    93    4.7340E-01  4.1264E-04   4.7298E-01  0.000E+00  0.000E+00  0.000E+00  1.12772E+02  5.217E-01  2.437E+00  4.039E-04  3.835E-04  2.909E-05
   1    4   94     1    94    4.7298E-01  4.1249E-04   4.7257E-01  0.000E+00  0.000E+00  0.000E+00  1.12472E+02  5.215E-01  2.436E+00  4.038E-04  3.877E-04  2.478E-05
   1    4   95     1    95    4.7257E-01  4.1234E-04   4.7216E-01  0.000E+00  0.000E+00  0.000E+00  1.12171E+02  5.213E-01  2.436E+00  4.037E-04  3.920E-04  2.030E-05
   1    4   96     1    96    4.7216E-01  4.1219E-04   4.7175E-01  0.000E+00  0.000E+00  0.000E+00  1.11871E+02  5.211E-01  2.436E+00  4.037E-04  3.965E-04  1.566E-05
   1    4   97     1    97    4.7175E-01  4.1204E-04   4.7133E-01  0.000E+00  0.000E+00  0.000E+00  1.11571E+02  5.209E-01  2.436E+00  4.036E-04  4.012E-04  1.088E-05
   1    4   98     1    98    4.7133E-01  4.1189E-04   4.7092E-01  0.000E+00  0.000E+00  0.000E+00  1.11271E+02  5.207E-01  2.435E+00  4.035E-04  4.059E-04  6.000E-06
   1    4   99     1    99    4.7092E-01  4.1174E-04   4.7051E-01  0.000E+00  0.000E+00  0.000E+00  1.10971E+02  5.205E-01  2.435E+00  4.035E-04  4.107E-04  1.050E-06
   1    4  100     1   100    4.7051E-01  4.1160E-04   4.7010E-01  0.000E+00  0.000E+00  0.000E+00  1.10670E+02  5.203E-01  2.435E+00  4.034E-04  4.188E-04 -7.208E-06



1
  VOLUMETRIC BUDGET FOR UNSATURATED ZONE BENEATH STREAMS AT END OF TIME STEP    30 STRESS PERIOD  26
  ------------------------------------------------------------------------------------------------

    CUMULATIVE VOLUMES             L**3    RATES FOR THIS TIME STEP         L**3/T
    ------------------                     ------------------------


          STREAM LOSS =     27417554.0000            STREAM LOSS =        4.1901E-02
    CHANGE IN STORAGE =      1099730.3750      CHANGE IN STORAGE =       -6.8028E-03
       RECHARGE TO GW =     26324718.0000         RECHARGE TO GW =        4.8703E-02

             TOTAL IN =     27417554.0000               TOTAL IN =        4.8704E-02

            TOTAL OUT =     27424448.0000              TOTAL OUT =        4.8703E-02

             IN - OUT =        -6894.0000               IN - OUT =        5.1036E-07

  PERCENT DISCREPANCY =           -0.01      PERCENT DISCREPANCY =             0.00



1
  VOLUMETRIC BUDGET FOR ENTIRE MODEL AT END OF TIME STEP   30, STRESS PERIOD  26
  ------------------------------------------------------------------------------

     CUMULATIVE VOLUMES      L**3       RATES FOR THIS TIME STEP      L**3/T
     ------------------                 ------------------------

           IN:                                      IN:
           ---                                      ---
             STORAGE     =    93419016.0000               STORAGE     =           0.7392
       CONSTANT HEAD     =           0.0000         CONSTANT HEAD     =           0.0000
               WELLS     =           0.0000                 WELLS     =           0.0000
     HEAD DEP BOUNDS     =        4345.2583       HEAD DEP BOUNDS     =       5.9213E-03
      STREAM LEAKAGE     =    26324392.0000        STREAM LEAKAGE     =       4.8703E-02

                TOTAL IN =   119747752.0000                  TOTAL IN =           0.7939

          OUT:                                     OUT:
          ----                                     ----
             STORAGE     =     3026919.7500               STORAGE     =           0.0000
       CONSTANT HEAD     =           0.0000         CONSTANT HEAD     =           0.0000
               WELLS     =   100361496.0000                 WELLS     =           0.7939
     HEAD DEP BOUNDS     =    16359348.0000       HEAD DEP BOUNDS     =           0.0000
      STREAM LEAKAGE     =           0.0000        STREAM LEAKAGE     =           0.0000

               TOTAL OUT =   119747760.0000                 TOTAL OUT =           0.7939

                IN - OUT =          -8.0000                  IN - OUT =      -1.1921E-07

     PERCENT DISCREPANCY =          -0.00         PERCENT DISCREPANCY =          -0.00






         TIME SUMMARY AT END OF TIME STEP   30 IN STRESS PERIOD   26
                    SECONDS     MINUTES      HOURS       DAYS        YEARS
                    -----------------------------------------------------------
   TIME STEP LENGTH 2.49961E+05  4166.0      69.434      2.8931     7.92080E-03
 STRESS PERIOD TIME 2.59200E+06  43200.      720.00      30.000     8.21355E-02
         TOTAL TIME 6.73919E+07 1.12320E+06  18720.      780.00      2.1355    
1
1
                            STRESS PERIOD NO.   27, LENGTH =   2592000.    
                            -----------------------------------------------

                              NUMBER OF TIME STEPS =    30

                               MULTIPLIER FOR DELT =     1.100

                            INITIAL TIME STEP SIZE =   15757.40    

 REUSING NON-PARAMETER WELLS FROM LAST STRESS PERIOD

      1 WELL 

 REUSING NON-PARAMETER GHB CELLS FROM LAST STRESS PERIOD

      7 GHB CELLS



 CLASSIFICATION & COUNT OF STREAM SEGMENTS BASED ON SOURCE OF INFLOW:

                HEADWATER     DIVERSION     RECEIVES TRIBUTARY FLOW
                ---------     ---------     -----------------------
                     1              0               0



                    INPUT DATA FOR EACH STREAM SEGMENT
 ---------------------------------------------------------------------------------------------

 SEGMENT    SEG.     INFLOW   OVERLAND   STREAM    STREAM   ICALC  OUTFLOW  DIVERSION PRIORITY
    NO.    LENGTH     RATE     RUNOFF      ET       PPT.    METH.  TO SEG.  FROM SEG.    NO.

      1  2.000E+04 7.500E-01 0.000E+00 0.000E+00 0.000E+00    2        0        0        0


         STREAMBED PROPERTIES AND STREAM DIMENSIONS

 SEGMENT     BED HYD. COND.      BED THICKNESS     ELEV.-TOP OF BED     WIDTH OF STREAM     DEPTH OF STREAM    STREAM ROUGHNESS
    No.     UPPER     LOWER     UPPER     LOWER     UPPER     LOWER     UPPER     LOWER     UPPER     LOWER   CHANNEL      BANK

     1  3.500E-07 3.500E-07                                                                                 3.000E-02 4.000E-02

  EIGHT POINT CROSS-SECTION DATA FOR SEGMENTS WITH ICALC = 2
    X VALUES X VALUES START FROM LEFT SIDE LOOKING DOWNSTREAM

     SEGMENT NO.        X1        X2        X3        X4        X5        X6        X7        X8
            1      0.000E+00 2.000E+00 4.000E+00 6.000E+00 8.000E+00 1.000E+01 1.200E+01 1.400E+01

    Z VALUES ARE RELATIVE TO STREAMBED ELEVATION

     SEGMENT NO.          Z1        Z2        Z3        Z4        Z5        Z6        Z7        Z8
            1      6.000E+00 4.500E+00 3.500E+00 0.000E+00 3.000E-01 3.500E+00 4.500E+00 6.000E+00



 
 SOLVING FOR HEAD 
                                                   Max.-Head-Change                         Max.-Flux-Residual
  Residual-Control   Outer-Iter.   Inner-Iter.     Column Row Layer    Maximum-Head-Change  Column Row Layer    Maximum-Flux-Residual          L2-NORM 
          0                 1           2            73    1     1      -0.6905538657E-02      50    3    1        -0.3207462582E-01      0.5057801838E-01
          0                 2           2            72    1     1       0.6765709642E-03      50    3    1         0.2882971140E-02      0.4645518131E-02
          0                 3           1            72    1     1      -0.5992968539E-04      50    3    1        -0.2623626274E-03      0.4230632285E-03
          0                 4           1            72    1     1       0.4738629931E-05      50    3    1         0.2099188936E-04      0.3411725514E-04
          0                 5           1            72    1     1      -0.3294621369E-06      50    3    1        -0.1475849491E-05      0.2413629120E-05

    ------------------------------------------------
       NWT REQUIRED            5 OUTER ITERATIONS 
       AND A TOTAL OF          7 INNER ITERATIONS.
    ------------------------------------------------

 NO OUTPUT CONTROL FOR STRESS PERIOD   27   TIME STEP    1
 
 WELLS WITH REDUCED PUMPING FOR STRESS PERIOD    27 TIME STEP     1
   LAY   ROW   COL         APPL.Q          ACT.Q        GW-HEAD       CELL-BOT
     1     3    50  -0.147989E+01  -0.442998E+00   0.406320E-03   0.000000E+00
     1     5    55  -0.147989E+01  -0.350693E+00   0.351199E-03   0.000000E+00
 
 
 SOLVING FOR HEAD 
                                                   Max.-Head-Change                         Max.-Flux-Residual
  Residual-Control   Outer-Iter.   Inner-Iter.     Column Row Layer    Maximum-Head-Change  Column Row Layer    Maximum-Flux-Residual          L2-NORM 
          0                 1           2            73    1     1      -0.7591486193E-02      73    1    1        -0.1435809678E-02      0.2973601545E-01
          0                 2           2            72    1     1       0.7425725104E-03      73    1    1         0.1435806788E-03      0.2886777267E-02
          0                 3           1            72    1     1      -0.6569365068E-04      73    1    1        -0.1292228892E-04      0.2631045350E-03
          0                 4           1            72    1     1       0.5189768217E-05      73    7    1         0.1035075289E-05      0.2152183242E-04
          0                 5           1            72    1     1      -0.3606229280E-06      73    7    1        -0.7276478975E-07      0.1540103279E-05

    ------------------------------------------------
       NWT REQUIRED            5 OUTER ITERATIONS 
       AND A TOTAL OF          7 INNER ITERATIONS.
    ------------------------------------------------

 NO OUTPUT CONTROL FOR STRESS PERIOD   27   TIME STEP    2
 
 WELLS WITH REDUCED PUMPING FOR STRESS PERIOD    27 TIME STEP     2
   LAY   ROW   COL         APPL.Q          ACT.Q        GW-HEAD       CELL-BOT
     1     3    50  -0.148024E+01  -0.442895E+00   0.406206E-03   0.000000E+00
     1     5    55  -0.148024E+01  -0.350589E+00   0.351091E-03   0.000000E+00
 
 
 SOLVING FOR HEAD 
                                                   Max.-Head-Change                         Max.-Flux-Residual
  Residual-Control   Outer-Iter.   Inner-Iter.     Column Row Layer    Maximum-Head-Change  Column Row Layer    Maximum-Flux-Residual          L2-NORM 
          0                 1           2            73    1     1      -0.8345079235E-02      73    1    1        -0.1435158256E-02      0.2972985272E-01
          0                 2           2            72    1     1       0.8148415626E-03      73    1    1         0.1435154669E-03      0.2886187070E-02
          0                 3           1            72    1     1      -0.7198529246E-04      73    1    1        -0.1291642625E-04      0.2632412828E-03
          0                 4           1            72    1     1       0.5680897060E-05      73    1    1         0.1034605603E-05      0.2157398730E-04
          0                 5           1            72    1     1      -0.3944762071E-06      20    4    1         0.7413515846E-07      0.1547355784E-05

    ------------------------------------------------
       NWT REQUIRED            5 OUTER ITERATIONS 
       AND A TOTAL OF          7 INNER ITERATIONS.
    ------------------------------------------------

 NO OUTPUT CONTROL FOR STRESS PERIOD   27   TIME STEP    3
 
 WELLS WITH REDUCED PUMPING FOR STRESS PERIOD    27 TIME STEP     3
   LAY   ROW   COL         APPL.Q          ACT.Q        GW-HEAD       CELL-BOT
     1     3    50  -0.147981E+01  -0.442784E+00   0.406216E-03   0.000000E+00
     1     5    55  -0.147981E+01  -0.350476E+00   0.351085E-03   0.000000E+00
 
 
 SOLVING FOR HEAD 
                                                   Max.-Head-Change                         Max.-Flux-Residual
  Residual-Control   Outer-Iter.   Inner-Iter.     Column Row Layer    Maximum-Head-Change  Column Row Layer    Maximum-Flux-Residual          L2-NORM 
          0                 1           2            73    1     1      -0.9172899853E-02      73    1    1        -0.1434441680E-02      0.2972101360E-01
          0                 2           2            72    1     1       0.8939526925E-03      73    1    1         0.1434437250E-03      0.2885480744E-02
          0                 3           1            72    1     1      -0.7884939216E-04      73    1    1        -0.1290997723E-04      0.2633768620E-03
          0                 4           1            72    1     1       0.6215104604E-05      73    7    1         0.1034088936E-05      0.2162695713E-04
          0                 5           1            72    1     1      -0.4312095375E-06      20    4    1         0.7756293030E-07      0.1554868088E-05

    ------------------------------------------------
       NWT REQUIRED            5 OUTER ITERATIONS 
       AND A TOTAL OF          7 INNER ITERATIONS.
    ------------------------------------------------

 NO OUTPUT CONTROL FOR STRESS PERIOD   27   TIME STEP    4
 
 WELLS WITH REDUCED PUMPING FOR STRESS PERIOD    27 TIME STEP     4
   LAY   ROW   COL         APPL.Q          ACT.Q        GW-HEAD       CELL-BOT
     1     3    50  -0.148020E+01  -0.442661E+00   0.406084E-03   0.000000E+00
     1     5    55  -0.148020E+01  -0.350352E+00   0.350959E-03   0.000000E+00
 
 
 SOLVING FOR HEAD 
                                                   Max.-Head-Change                         Max.-Flux-Residual
  Residual-Control   Outer-Iter.   Inner-Iter.     Column Row Layer    Maximum-Head-Change  Column Row Layer    Maximum-Flux-Residual          L2-NORM 
          0                 1           2            73    1     1      -0.1008215431E-01      73    1    1        -0.1433653521E-02      0.2971135749E-01
          0                 2           2            72    1     1       0.9805326599E-03      73    1    1         0.1433648078E-03      0.2884477715E-02
          0                 3           1            72    1     1      -0.8633444690E-04      73    1    1        -0.1290288396E-04      0.2634848161E-03
          0                 4           1            72    1     1       0.6795698765E-05      73    1    1         0.1033520654E-05      0.2167996829E-04
          0                 5           1            72    1     1      -0.4710206558E-06      20    4    1         0.8095325654E-07      0.1562671959E-05

    ------------------------------------------------
       NWT REQUIRED            5 OUTER ITERATIONS 
       AND A TOTAL OF          7 INNER ITERATIONS.
    ------------------------------------------------

 NO OUTPUT CONTROL FOR STRESS PERIOD   27   TIME STEP    5
 
 WELLS WITH REDUCED PUMPING FOR STRESS PERIOD    27 TIME STEP     5
   LAY   ROW   COL         APPL.Q          ACT.Q        GW-HEAD       CELL-BOT
     1     3    50  -0.148010E+01  -0.442526E+00   0.406028E-03   0.000000E+00
     1     5    55  -0.148010E+01  -0.350216E+00   0.350895E-03   0.000000E+00
 
 
 SOLVING FOR HEAD 
                                                   Max.-Head-Change                         Max.-Flux-Residual
  Residual-Control   Outer-Iter.   Inner-Iter.     Column Row Layer    Maximum-Head-Change  Column Row Layer    Maximum-Flux-Residual          L2-NORM 
          0                 1           2            73    1     1      -0.1108073140E-01      73    1    1        -0.1432786696E-02      0.2970137750E-01
          0                 2           2            72    1     1       0.1075265706E-02      73    1    1         0.1432780039E-03      0.2883437837E-02
          0                 3           1            72    1     1      -0.9449307480E-04      73    1    1        -0.1289508267E-04      0.2636013253E-03
          0                 4           1            72    1     1       0.7426225130E-05      73    7    1         0.1032895622E-05      0.2173478807E-04
          0                 5           1            72    1     1      -0.5141171711E-06      20    4    1         0.8427442211E-07      0.1570800401E-05

    ------------------------------------------------
       NWT REQUIRED            5 OUTER ITERATIONS 
       AND A TOTAL OF          7 INNER ITERATIONS.
    ------------------------------------------------

 NO OUTPUT CONTROL FOR STRESS PERIOD   27   TIME STEP    6
 
 WELLS WITH REDUCED PUMPING FOR STRESS PERIOD    27 TIME STEP     6
   LAY   ROW   COL         APPL.Q          ACT.Q        GW-HEAD       CELL-BOT
     1     3    50  -0.147991E+01  -0.442377E+00   0.405977E-03   0.000000E+00
     1     5    55  -0.147991E+01  -0.350067E+00   0.350834E-03   0.000000E+00
 
 
 SOLVING FOR HEAD 
                                                   Max.-Head-Change                         Max.-Flux-Residual
  Residual-Control   Outer-Iter.   Inner-Iter.     Column Row Layer    Maximum-Head-Change  Column Row Layer    Maximum-Flux-Residual          L2-NORM 
          0                 1           2            73    1     1      -0.1217726002E-01      73    1    1        -0.1431833412E-02      0.2968861960E-01
          0                 2           2            72    1     1       0.1178898887E-02      73    1    1         0.1431825311E-03      0.2882294353E-02
          0                 3           1            72    1     1      -0.1033824375E-03      73    1    1        -0.1288650322E-04      0.2637037729E-03
          0                 4           1            72    1     1       0.8110492835E-05      73    1    1         0.1032208241E-05      0.2178904892E-04
          0                 5           1            72    1     1      -0.5607179209E-06      20    4    1         0.8721616140E-07      0.1579089540E-05

    ------------------------------------------------
       NWT REQUIRED            5 OUTER ITERATIONS 
       AND A TOTAL OF          7 INNER ITERATIONS.
    ------------------------------------------------

 NO OUTPUT CONTROL FOR STRESS PERIOD   27   TIME STEP    7
 
 WELLS WITH REDUCED PUMPING FOR STRESS PERIOD    27 TIME STEP     7
   LAY   ROW   COL         APPL.Q          ACT.Q        GW-HEAD       CELL-BOT
     1     3    50  -0.147983E+01  -0.442215E+00   0.405902E-03   0.000000E+00
     1     5    55  -0.147983E+01  -0.349902E+00   0.350750E-03   0.000000E+00
 
 
 SOLVING FOR HEAD 
                                                   Max.-Head-Change                         Max.-Flux-Residual
  Residual-Control   Outer-Iter.   Inner-Iter.     Column Row Layer    Maximum-Head-Change  Column Row Layer    Maximum-Flux-Residual          L2-NORM 
          0                 1           2            73    1     1      -0.1338117818E-01      73    1    1        -0.1430785113E-02      0.2967564259E-01
          0                 2           2            72    1     1       0.1292248542E-02      73    1    1         0.1430775301E-03      0.2880909604E-02
          0                 3           2            72    1     1      -0.1130651380E-03      73    1    1        -0.1287706859E-04      0.2637454049E-03
          0                 4           1            72    1     1       0.8853002858E-05      73    7    1         0.1031452326E-05      0.2183824165E-04
          0                 5           1            72    1     1      -0.6110827009E-06      21    4    1         0.8961356102E-07      0.1587123338E-05

    ------------------------------------------------
       NWT REQUIRED            5 OUTER ITERATIONS 
       AND A TOTAL OF          8 INNER ITERATIONS.
    ------------------------------------------------

 NO OUTPUT CONTROL FOR STRESS PERIOD   27   TIME STEP    8
 
 WELLS WITH REDUCED PUMPING FOR STRESS PERIOD    27 TIME STEP     8
   LAY   ROW   COL         APPL.Q          ACT.Q        GW-HEAD       CELL-BOT
     1     3    50  -0.147987E+01  -0.442035E+00   0.405797E-03   0.000000E+00
     1     5    55  -0.147987E+01  -0.349722E+00   0.350641E-03   0.000000E+00
 
 
 SOLVING FOR HEAD 
                                                   Max.-Head-Change                         Max.-Flux-Residual
  Residual-Control   Outer-Iter.   Inner-Iter.     Column Row Layer    Maximum-Head-Change  Column Row Layer    Maximum-Flux-Residual          L2-NORM 
          0                 1           2            73    1     1      -0.1470279922E-01      73    1    1        -0.1429632411E-02      0.2966026687E-01
          0                 2           2            72    1     1       0.1416206604E-02      73    1    1         0.1429620581E-03      0.2879501763E-02
          0                 3           2            72    1     1      -0.1236084991E-03      73    1    1        -0.1286669421E-04      0.2637980673E-03
          0                 4           1            72    1     1       0.9657643837E-05      73    1    1         0.1030621107E-05      0.2188722432E-04
          0                 5           1            72    1     1      -0.6654176127E-06      21    4    1         0.9319611749E-07      0.1595205983E-05

    ------------------------------------------------
       NWT REQUIRED            5 OUTER ITERATIONS 
       AND A TOTAL OF          8 INNER ITERATIONS.
    ------------------------------------------------

 NO OUTPUT CONTROL FOR STRESS PERIOD   27   TIME STEP    9
 
 WELLS WITH REDUCED PUMPING FOR STRESS PERIOD    27 TIME STEP     9
   LAY   ROW   COL         APPL.Q          ACT.Q        GW-HEAD       CELL-BOT
     1     3    50  -0.147994E+01  -0.441836E+00   0.405678E-03   0.000000E+00
     1     5    55  -0.147994E+01  -0.349524E+00   0.350516E-03   0.000000E+00
 
 
 SOLVING FOR HEAD 
                                                   Max.-Head-Change                         Max.-Flux-Residual
  Residual-Control   Outer-Iter.   Inner-Iter.     Column Row Layer    Maximum-Head-Change  Column Row Layer    Maximum-Flux-Residual          L2-NORM 
          0                 1           2            73    1     1      -0.1615339141E-01      73    1    1        -0.1428365018E-02      0.2964156121E-01
          0                 2           2            72    1     1       0.1551748196E-02      73    1    1         0.1428350819E-03      0.2877824443E-02
          0                 3           2            72    1     1      -0.1350868730E-03      73    1    1        -0.1285528745E-04      0.2638432297E-03
          0                 4           1            72    1     1       0.1052951964E-04      21    4    1        -0.1035027182E-05      0.2193805599E-04
          0                 5           1            72    1     1      -0.7240057006E-06      21    4    1         0.9631465403E-07      0.1603626930E-05

    ------------------------------------------------
       NWT REQUIRED            5 OUTER ITERATIONS 
       AND A TOTAL OF          8 INNER ITERATIONS.
    ------------------------------------------------

 NO OUTPUT CONTROL FOR STRESS PERIOD   27   TIME STEP   10
 
 WELLS WITH REDUCED PUMPING FOR STRESS PERIOD    27 TIME STEP    10
   LAY   ROW   COL         APPL.Q          ACT.Q        GW-HEAD       CELL-BOT
     1     3    50  -0.147987E+01  -0.441618E+00   0.405569E-03   0.000000E+00
     1     5    55  -0.147987E+01  -0.349305E+00   0.350398E-03   0.000000E+00
 
 
 SOLVING FOR HEAD 
                                                   Max.-Head-Change                         Max.-Flux-Residual
  Residual-Control   Outer-Iter.   Inner-Iter.     Column Row Layer    Maximum-Head-Change  Column Row Layer    Maximum-Flux-Residual          L2-NORM 
          0                 1           2            73    1     1      -0.1774525055E-01      73    1    1        -0.1426971668E-02      0.2962131055E-01
          0                 2           2            72    1     1       0.1699938620E-02      73    1    1         0.1426954700E-03      0.2875779986E-02
          0                 3           2            72    1     1      -0.1475812520E-03      73    1    1        -0.1284274684E-04      0.2638416971E-03
          0                 4           1            72    1     1       0.1147392673E-04      21    4    1        -0.1059661809E-05      0.2198501235E-04
          0                 5           1            72    1     1      -0.7871323450E-06      21    4    1         0.9933629386E-07      0.1611848512E-05

    ------------------------------------------------
       NWT REQUIRED            5 OUTER ITERATIONS 
       AND A TOTAL OF          8 INNER ITERATIONS.
    ------------------------------------------------

 NO OUTPUT CONTROL FOR STRESS PERIOD   27   TIME STEP   11
 
 WELLS WITH REDUCED PUMPING FOR STRESS PERIOD    27 TIME STEP    11
   LAY   ROW   COL         APPL.Q          ACT.Q        GW-HEAD       CELL-BOT
     1     3    50  -0.148005E+01  -0.441379E+00   0.405410E-03   0.000000E+00
     1     5    55  -0.148005E+01  -0.349064E+00   0.350235E-03   0.000000E+00
 
 
 SOLVING FOR HEAD 
                                                   Max.-Head-Change                         Max.-Flux-Residual
  Residual-Control   Outer-Iter.   Inner-Iter.     Column Row Layer    Maximum-Head-Change  Column Row Layer    Maximum-Flux-Residual          L2-NORM 
          0                 1           2            11    7     1      -0.1950366553E-01      73    1    1        -0.1425440029E-02      0.2959796496E-01
          0                 2           2            72    1     1       0.1861941852E-02      73    1    1         0.1425419835E-03      0.2873627074E-02
          0                 3           2            72    7     1      -0.1611802403E-03      73    1    1        -0.1282896127E-04      0.2638204298E-03
          0                 4           1            72    1     1       0.1249665475E-04      21    4    1        -0.1083210233E-05      0.2202955015E-04
          0                 5           1            72    1     1      -0.8551056396E-06      21    4    1         0.1022538818E-06      0.1619903614E-05

    ------------------------------------------------
       NWT REQUIRED            5 OUTER ITERATIONS 
       AND A TOTAL OF          8 INNER ITERATIONS.
    ------------------------------------------------

 NO OUTPUT CONTROL FOR STRESS PERIOD   27   TIME STEP   12
 
 WELLS WITH REDUCED PUMPING FOR STRESS PERIOD    27 TIME STEP    12
   LAY   ROW   COL         APPL.Q          ACT.Q        GW-HEAD       CELL-BOT
     1     3    50  -0.148008E+01  -0.441116E+00   0.405262E-03   0.000000E+00
     1     5    55  -0.148008E+01  -0.348799E+00   0.350078E-03   0.000000E+00
 
 
 SOLVING FOR HEAD 
                                                   Max.-Head-Change                         Max.-Flux-Residual
  Residual-Control   Outer-Iter.   Inner-Iter.     Column Row Layer    Maximum-Head-Change  Column Row Layer    Maximum-Flux-Residual          L2-NORM 
          0                 1           2             1    1     1      -0.2144079828E-01       1    1    1        -0.1424798856E-02      0.2956379639E-01
          0                 2           2            15    7     1       0.2039465820E-02       1    1    1         0.1424785432E-03      0.2870832715E-02
          0                 3           2            72    7     1      -0.1759807839E-03       1    1    1        -0.1282321227E-04      0.2638588445E-03
          0                 4           1            72    1     1       0.1360404449E-04      21    4    1        -0.1105562607E-05      0.2208827982E-04
          0                 5           1            71    1     1      -0.9283035594E-06      21    4    1         0.1050537328E-06      0.1629408053E-05

    ------------------------------------------------
       NWT REQUIRED            5 OUTER ITERATIONS 
       AND A TOTAL OF          8 INNER ITERATIONS.
    ------------------------------------------------

 NO OUTPUT CONTROL FOR STRESS PERIOD   27   TIME STEP   13
 
 WELLS WITH REDUCED PUMPING FOR STRESS PERIOD    27 TIME STEP    13
   LAY   ROW   COL         APPL.Q          ACT.Q        GW-HEAD       CELL-BOT
     1     3    50  -0.148008E+01  -0.440827E+00   0.405104E-03   0.000000E+00
     1     5    55  -0.148008E+01  -0.348508E+00   0.349910E-03   0.000000E+00
 
 
 SOLVING FOR HEAD 
                                                   Max.-Head-Change                         Max.-Flux-Residual
  Residual-Control   Outer-Iter.   Inner-Iter.     Column Row Layer    Maximum-Head-Change  Column Row Layer    Maximum-Flux-Residual          L2-NORM 
          0                 1           2            16    7     1      -0.2355067275E-01       1    1    1        -0.1424295218E-02      0.2952008197E-01
          0                 2           2            16    7     1       0.2236211481E-02       1    1    1         0.1424268952E-03      0.2866870604E-02
          0                 3           2            72    7     1      -0.1920889326E-03       1    1    1        -0.1281859713E-04      0.2636460438E-03
          0                 4           1            72    1     1       0.1480304198E-04      22    4    1        -0.1115153673E-05      0.2211395169E-04
          0                 5           1            71    1     1      -0.1007172589E-05      22    4    1         0.1064416111E-06      0.1635891445E-05
          0                 6           1            71    1     1       0.5944095051E-07      22    4    1        -0.7797254398E-08      0.1038939012E-06

    ------------------------------------------------
       NWT REQUIRED            6 OUTER ITERATIONS 
       AND A TOTAL OF          9 INNER ITERATIONS.
    ------------------------------------------------

 NO OUTPUT CONTROL FOR STRESS PERIOD   27   TIME STEP   14
 
 WELLS WITH REDUCED PUMPING FOR STRESS PERIOD    27 TIME STEP    14
   LAY   ROW   COL         APPL.Q          ACT.Q        GW-HEAD       CELL-BOT
     1     3    50  -0.148003E+01  -0.440489E+00   0.404927E-03   0.000000E+00
     1     5    55  -0.148003E+01  -0.348189E+00   0.349731E-03   0.000000E+00
 
 
 SOLVING FOR HEAD 
                                                   Max.-Head-Change                         Max.-Flux-Residual
  Residual-Control   Outer-Iter.   Inner-Iter.     Column Row Layer    Maximum-Head-Change  Column Row Layer    Maximum-Flux-Residual          L2-NORM 
          0                 1           2            17    7     1      -0.2585658925E-01      16    1    1        -0.1422324720E-02      0.2947895180E-01
          0                 2           2            18    7     1       0.2449632939E-02      16    7    1         0.1422297272E-03      0.2862204663E-02
          0                 3           2            72    7     1      -0.2096207195E-03      16    7    1        -0.1280087758E-04      0.2633260122E-03
          0                 4           1            72    1     1       0.1610127396E-04      22    4    1        -0.1138903116E-05      0.2212650453E-04
          0                 5           1            71    1     1      -0.1092005894E-05      22    4    1         0.1095808884E-06      0.1641015396E-05
          0                 6           1            71    1     1       0.6425318804E-07      22    4    1        -0.8089536152E-08      0.1045496571E-06

    ------------------------------------------------
       NWT REQUIRED            6 OUTER ITERATIONS 
       AND A TOTAL OF          9 INNER ITERATIONS.
    ------------------------------------------------

 NO OUTPUT CONTROL FOR STRESS PERIOD   27   TIME STEP   15
 
 WELLS WITH REDUCED PUMPING FOR STRESS PERIOD    27 TIME STEP    15
   LAY   ROW   COL         APPL.Q          ACT.Q        GW-HEAD       CELL-BOT
     1     3    50  -0.148003E+01  -0.440124E+00   0.404727E-03   0.000000E+00
     1     5    55  -0.148003E+01  -0.347828E+00   0.349522E-03   0.000000E+00
 
 
 SOLVING FOR HEAD 
                                                   Max.-Head-Change                         Max.-Flux-Residual
  Residual-Control   Outer-Iter.   Inner-Iter.     Column Row Layer    Maximum-Head-Change  Column Row Layer    Maximum-Flux-Residual          L2-NORM 
          0                 1           2            19    7     1      -0.2837020861E-01      17    1    1        -0.1419934406E-02      0.2943760511E-01
          0                 2           2            19    7     1       0.2681473535E-02      17    1    1         0.1419898220E-03      0.2858201416E-02
          0                 3           2            72    7     1      -0.2287026433E-03      17    1    1        -0.1277932286E-04      0.2631241783E-03
          0                 4           1            72    1     1       0.1750707981E-04      22    4    1        -0.1157939717E-05      0.2215435397E-04
          0                 5           1            71    1     1      -0.1183234668E-05      22    4    1         0.1120633044E-06      0.1647359245E-05
          0                 6           1            71    1     1       0.6938762840E-07      22    4    1        -0.8319638312E-08      0.1052815154E-06

    ------------------------------------------------
       NWT REQUIRED            6 OUTER ITERATIONS 
       AND A TOTAL OF          9 INNER ITERATIONS.
    ------------------------------------------------

 NO OUTPUT CONTROL FOR STRESS PERIOD   27   TIME STEP   16
 
 WELLS WITH REDUCED PUMPING FOR STRESS PERIOD    27 TIME STEP    16
   LAY   ROW   COL         APPL.Q          ACT.Q        GW-HEAD       CELL-BOT
     1     3    50  -0.148003E+01  -0.439733E+00   0.404514E-03   0.000000E+00
     1     5    55  -0.148003E+01  -0.347422E+00   0.349287E-03   0.000000E+00
 
 
 SOLVING FOR HEAD 
                                                   Max.-Head-Change                         Max.-Flux-Residual
  Residual-Control   Outer-Iter.   Inner-Iter.     Column Row Layer    Maximum-Head-Change  Column Row Layer    Maximum-Flux-Residual          L2-NORM 
          0                 1           2             9    7     1      -0.3112240595E-01      19    1    1        -0.1416602328E-02      0.2939524390E-01
          0                 2           2            13    7     1       0.2930529006E-02      19    1    1         0.1416561852E-03      0.2853814399E-02
          0                 3           2            72    7     1      -0.2494728620E-03      19    1    1        -0.1274933343E-04      0.2628836660E-03
          0                 4           1            72    1     1       0.1902960398E-04      22    4    1        -0.1175306075E-05      0.2217844980E-04
          0                 5           1            71    1     1      -0.1281326489E-05      22    4    1         0.1143514723E-06      0.1653105157E-05
          0                 6           1            71    1     1       0.7486170877E-07      22    4    1        -0.8532886397E-08      0.1059581165E-06

    ------------------------------------------------
       NWT REQUIRED            6 OUTER ITERATIONS 
       AND A TOTAL OF          9 INNER ITERATIONS.
    ------------------------------------------------

 NO OUTPUT CONTROL FOR STRESS PERIOD   27   TIME STEP   17
 
 WELLS WITH REDUCED PUMPING FOR STRESS PERIOD    27 TIME STEP    17
   LAY   ROW   COL         APPL.Q          ACT.Q        GW-HEAD       CELL-BOT
     1     3    50  -0.148006E+01  -0.439309E+00   0.404276E-03   0.000000E+00
     1     5    55  -0.148006E+01  -0.346991E+00   0.349032E-03   0.000000E+00
 
 
 SOLVING FOR HEAD 
                                                   Max.-Head-Change                         Max.-Flux-Residual
  Residual-Control   Outer-Iter.   Inner-Iter.     Column Row Layer    Maximum-Head-Change  Column Row Layer    Maximum-Flux-Residual          L2-NORM 
          0                 1           2             8    7     1      -0.3421543719E-01       8    1    1        -0.1413253192E-02      0.2935085049E-01
          0                 2           2            12    7     1       0.3214813003E-02       7    1    1         0.1413225189E-03      0.2849383831E-02
          0                 3           2            15    7     1      -0.2720930129E-03       7    1    1        -0.1271931299E-04      0.2625711325E-03
          0                 4           1            72    7     1       0.2067884959E-04      23    4    1        -0.1178955007E-05      0.2218962304E-04
          0                 5           1            71    1     1      -0.1386781181E-05      23    4    1         0.1146115629E-06      0.1657168437E-05
          0                 6           1            71    1     1       0.8069292604E-07      23    4    1        -0.8546340524E-08      0.1064970937E-06

    ------------------------------------------------
       NWT REQUIRED            6 OUTER ITERATIONS 
       AND A TOTAL OF          9 INNER ITERATIONS.
    ------------------------------------------------

 NO OUTPUT CONTROL FOR STRESS PERIOD   27   TIME STEP   18
 
 WELLS WITH REDUCED PUMPING FOR STRESS PERIOD    27 TIME STEP    18
   LAY   ROW   COL         APPL.Q          ACT.Q        GW-HEAD       CELL-BOT
     1     3    50  -0.148005E+01  -0.438846E+00   0.404026E-03   0.000000E+00
     1     5    55  -0.148005E+01  -0.346524E+00   0.348764E-03   0.000000E+00
 
 
 SOLVING FOR HEAD 
                                                   Max.-Head-Change                         Max.-Flux-Residual
  Residual-Control   Outer-Iter.   Inner-Iter.     Column Row Layer    Maximum-Head-Change  Column Row Layer    Maximum-Flux-Residual          L2-NORM 
          0                 1           2             7    7     1      -0.3761548904E-01       7    1    1        -0.1412710852E-02      0.2930340761E-01
          0                 2           2            11    7     1       0.3527130574E-02       7    7    1         0.1412680872E-03      0.2844716218E-02
          0                 3           2            14    7     1      -0.2977799921E-03       7    7    1        -0.1271445300E-04      0.2622151102E-03
          0                 4           1            72    7     1       0.2246575508E-04      23    4    1        -0.1242533095E-05      0.2219201240E-04
          0                 5           1            71    1     1      -0.1500147847E-05      23    4    1         0.1203991467E-06      0.1659676118E-05
          0                 6           1            71    1     1       0.8690032293E-07      23    4    1        -0.8973199073E-08      0.1068862845E-06

    ------------------------------------------------
       NWT REQUIRED            6 OUTER ITERATIONS 
       AND A TOTAL OF          9 INNER ITERATIONS.
    ------------------------------------------------

 NO OUTPUT CONTROL FOR STRESS PERIOD   27   TIME STEP   19
 
 WELLS WITH REDUCED PUMPING FOR STRESS PERIOD    27 TIME STEP    19
   LAY   ROW   COL         APPL.Q          ACT.Q        GW-HEAD       CELL-BOT
     1     3    50  -0.147997E+01  -0.438338E+00   0.403761E-03   0.000000E+00
     1     5    55  -0.147997E+01  -0.346014E+00   0.348479E-03   0.000000E+00
 
 
 SOLVING FOR HEAD 
                                                   Max.-Head-Change                         Max.-Flux-Residual
  Residual-Control   Outer-Iter.   Inner-Iter.     Column Row Layer    Maximum-Head-Change  Column Row Layer    Maximum-Flux-Residual          L2-NORM 
          0                 1           2             7    7     1      -0.4135235994E-01       7    1    1        -0.1412144449E-02      0.2925188042E-01
          0                 2           2            11    7     1       0.3870084068E-02       7    7    1         0.1412110436E-03      0.2839732198E-02
          0                 3           2            13    7     1      -0.3259498425E-03       7    1    1        -0.1270936238E-04      0.2618859425E-03
          0                 4           1            15    7     1       0.2441853515E-04      23    4    1        -0.1262499833E-05      0.2220047410E-04
          0                 5           1            71    1     1      -0.1622000480E-05      23    4    1         0.1223919384E-06      0.1662100721E-05
          0                 6           1            71    1     1       0.9350285255E-07      23    4    1        -0.9130655343E-08      0.1072267096E-06

    ------------------------------------------------
       NWT REQUIRED            6 OUTER ITERATIONS 
       AND A TOTAL OF          9 INNER ITERATIONS.
    ------------------------------------------------

 NO OUTPUT CONTROL FOR STRESS PERIOD   27   TIME STEP   20
 
 WELLS WITH REDUCED PUMPING FOR STRESS PERIOD    27 TIME STEP    20
   LAY   ROW   COL         APPL.Q          ACT.Q        GW-HEAD       CELL-BOT
     1     3    50  -0.147996E+01  -0.437777E+00   0.403456E-03   0.000000E+00
     1     5    55  -0.147996E+01  -0.345451E+00   0.348154E-03   0.000000E+00
 
 
 SOLVING FOR HEAD 
                                                   Max.-Head-Change                         Max.-Flux-Residual
  Residual-Control   Outer-Iter.   Inner-Iter.     Column Row Layer    Maximum-Head-Change  Column Row Layer    Maximum-Flux-Residual          L2-NORM 
          0                 1           2             7    7     1      -0.4545880019E-01       7    1    1        -0.1411526588E-02      0.2919442034E-01
          0                 2           2            10    1     1       0.4246625535E-02       7    7    1         0.1411488065E-03      0.2834241675E-02
          0                 3           2            13    7     1      -0.3568394991E-03       7    1    1        -0.1270380916E-04      0.2614538246E-03
          0                 4           1            15    7     1       0.2664856358E-04      25    4    1        -0.1260368464E-05      0.2219488752E-04
          0                 5           1            71    1     1      -0.1752937318E-05      24    4    1         0.1226810866E-06      0.1662349612E-05
          0                 6           1            71    1     1       0.1005166377E-06      24    4    1        -0.9223199982E-08      0.1073670451E-06

    ------------------------------------------------
       NWT REQUIRED            6 OUTER ITERATIONS 
       AND A TOTAL OF          9 INNER ITERATIONS.
    ------------------------------------------------

 NO OUTPUT CONTROL FOR STRESS PERIOD   27   TIME STEP   21
 
 WELLS WITH REDUCED PUMPING FOR STRESS PERIOD    27 TIME STEP    21
   LAY   ROW   COL         APPL.Q          ACT.Q        GW-HEAD       CELL-BOT
     1     3    50  -0.148000E+01  -0.437159E+00   0.403110E-03   0.000000E+00
     1     5    55  -0.148000E+01  -0.344832E+00   0.347788E-03   0.000000E+00
 
 
 SOLVING FOR HEAD 
                                                   Max.-Head-Change                         Max.-Flux-Residual
  Residual-Control   Outer-Iter.   Inner-Iter.     Column Row Layer    Maximum-Head-Change  Column Row Layer    Maximum-Flux-Residual          L2-NORM 
          0                 1           2             6    7     1      -0.4997107877E-01       7    1    1        -0.1410846452E-02      0.2913425396E-01
          0                 2           2             9    7     1       0.4660026043E-02       7    7    1         0.1410802910E-03      0.2828034272E-02
          0                 3           2            12    7     1      -0.3907091198E-03       4    3    1        -0.1269835224E-04      0.2609652353E-03
          0                 4           1            15    7     1       0.2908486176E-04      24    4    1        -0.1261398825E-05      0.2218460786E-04
          0                 5           1            71    1     1      -0.1893567086E-05      24    4    1         0.1245552568E-06      0.1661127887E-05
          0                 6           1            71    1     1       0.1079567782E-06      24    4    1        -0.9417565394E-08      0.1073407902E-06

    ------------------------------------------------
       NWT REQUIRED            6 OUTER ITERATIONS 
       AND A TOTAL OF          9 INNER ITERATIONS.
    ------------------------------------------------

 NO OUTPUT CONTROL FOR STRESS PERIOD   27   TIME STEP   22
 
 WELLS WITH REDUCED PUMPING FOR STRESS PERIOD    27 TIME STEP    22
   LAY   ROW   COL         APPL.Q          ACT.Q        GW-HEAD       CELL-BOT
     1     3    50  -0.147999E+01  -0.436479E+00   0.402740E-03   0.000000E+00
     1     5    55  -0.147999E+01  -0.344152E+00   0.347394E-03   0.000000E+00
 
 
 SOLVING FOR HEAD 
                                                   Max.-Head-Change                         Max.-Flux-Residual
  Residual-Control   Outer-Iter.   Inner-Iter.     Column Row Layer    Maximum-Head-Change  Column Row Layer    Maximum-Flux-Residual          L2-NORM 
          0                 1           3             6    7     1      -0.5492921493E-01       6    1    1        -0.1410108185E-02      0.2906602058E-01
          0                 2           2             9    7     1       0.5114104540E-02       6    7    1         0.1410059160E-03      0.2821763909E-02
          0                 3           2            11    1     1      -0.4278671728E-03       4    3    1        -0.1269188512E-04      0.2604561092E-03
          0                 4           1            15    7     1       0.3174645658E-04      24    4    1        -0.1272388499E-05      0.2216910988E-04
          0                 5           1            71    1     1      -0.2044424841E-05      24    4    1         0.1261472420E-06      0.1657956336E-05
          0                 6           1            71    1     1       0.1158284343E-06      24    4    1        -0.9557247438E-08      0.1071030617E-06

    ------------------------------------------------
       NWT REQUIRED            6 OUTER ITERATIONS 
       AND A TOTAL OF         10 INNER ITERATIONS.
    ------------------------------------------------

 NO OUTPUT CONTROL FOR STRESS PERIOD   27   TIME STEP   23
 
 WELLS WITH REDUCED PUMPING FOR STRESS PERIOD    27 TIME STEP    23
   LAY   ROW   COL         APPL.Q          ACT.Q        GW-HEAD       CELL-BOT
     1     3    50  -0.148003E+01  -0.435733E+00   0.402325E-03   0.000000E+00
     1     5    55  -0.148003E+01  -0.343408E+00   0.346956E-03   0.000000E+00
 
 
 SOLVING FOR HEAD 
                                                   Max.-Head-Change                         Max.-Flux-Residual
  Residual-Control   Outer-Iter.   Inner-Iter.     Column Row Layer    Maximum-Head-Change  Column Row Layer    Maximum-Flux-Residual          L2-NORM 
          0                 1           3             6    7     1      -0.6045577121E-01       6    1    1        -0.1409296542E-02      0.2899600543E-01
          0                 2           2             6    7     1       0.5646671934E-02       6    7    1         0.1409253881E-03      0.2814578274E-02
          0                 3           2             6    7     1      -0.4735095143E-03       4    3    1        -0.1268593125E-04      0.2596813209E-03
          0                 4           1             6    1     1       0.3513891031E-04      25    4    1        -0.1271068022E-05      0.2211073088E-04
          0                 5           1            71    1     1      -0.2205884579E-05      25    4    1         0.1242009979E-06      0.1648464340E-05
          0                 6           1            71    7     1       0.1241114504E-06      26    4    1        -0.9382564059E-08      0.1062977052E-06

    ------------------------------------------------
       NWT REQUIRED            6 OUTER ITERATIONS 
       AND A TOTAL OF         10 INNER ITERATIONS.
    ------------------------------------------------

 NO OUTPUT CONTROL FOR STRESS PERIOD   27   TIME STEP   24
 
 WELLS WITH REDUCED PUMPING FOR STRESS PERIOD    27 TIME STEP    24
   LAY   ROW   COL         APPL.Q          ACT.Q        GW-HEAD       CELL-BOT
     1     3    50  -0.147999E+01  -0.434914E+00   0.401882E-03   0.000000E+00
     1     5    55  -0.147999E+01  -0.342590E+00   0.346485E-03   0.000000E+00
 
 
 SOLVING FOR HEAD 
                                                   Max.-Head-Change                         Max.-Flux-Residual
  Residual-Control   Outer-Iter.   Inner-Iter.     Column Row Layer    Maximum-Head-Change  Column Row Layer    Maximum-Flux-Residual          L2-NORM 
          0                 1           3             6    7     1      -0.6655028619E-01       6    5    1        -0.1410445275E-02      0.2892158453E-01
          0                 2           2             6    7     1       0.6211903746E-02       6    5    1         0.1410380904E-03      0.2807443537E-02
          0                 3           2             6    7     1      -0.5211550441E-03       6    5    1        -0.1269373005E-04      0.2589819415E-03
          0                 4           1             5    1     1       0.3859072753E-04      25    4    1        -0.1284522259E-05      0.2206255635E-04
          0                 5           1             4    1     1      -0.2390767049E-05      25    4    1         0.1260628260E-06      0.1638707026E-05
          0                 6           1            71    1     1       0.1327194250E-06      26    4    1        -0.9508706711E-08      0.1054245782E-06

    ------------------------------------------------
       NWT REQUIRED            6 OUTER ITERATIONS 
       AND A TOTAL OF         10 INNER ITERATIONS.
    ------------------------------------------------

 NO OUTPUT CONTROL FOR STRESS PERIOD   27   TIME STEP   25
 
 WELLS WITH REDUCED PUMPING FOR STRESS PERIOD    27 TIME STEP    25
   LAY   ROW   COL         APPL.Q          ACT.Q        GW-HEAD       CELL-BOT
     1     3    50  -0.148002E+01  -0.434022E+00   0.401389E-03   0.000000E+00
     1     5    55  -0.148002E+01  -0.341702E+00   0.345965E-03   0.000000E+00
 
 
 SOLVING FOR HEAD 
                                                   Max.-Head-Change                         Max.-Flux-Residual
  Residual-Control   Outer-Iter.   Inner-Iter.     Column Row Layer    Maximum-Head-Change  Column Row Layer    Maximum-Flux-Residual          L2-NORM 
          0                 1           3             1    1     1      -0.7318940962E-01       4    3    1        -0.1411818160E-02      0.2883929881E-01
          0                 2           2             2    1     1       0.6823058766E-02       4    3    1         0.1411730166E-03      0.2799505745E-02
          0                 3           2             7    7     1      -0.5717111453E-03       4    3    1        -0.1271250276E-04      0.2581360589E-03
          0                 4           1             4    1     1       0.4222953293E-04      26    4    1        -0.1280328043E-05      0.2199557829E-04
          0                 5           1             1    1     1      -0.2581684949E-05      26    4    1         0.1277872173E-06      0.1624898763E-05
          0                 6           1            69    1     1       0.1416002706E-06      26    4    1        -0.9680160673E-08      0.1041887342E-06

    ------------------------------------------------
       NWT REQUIRED            6 OUTER ITERATIONS 
       AND A TOTAL OF         10 INNER ITERATIONS.
    ------------------------------------------------

 NO OUTPUT CONTROL FOR STRESS PERIOD   27   TIME STEP   26
 
 WELLS WITH REDUCED PUMPING FOR STRESS PERIOD    27 TIME STEP    26
   LAY   ROW   COL         APPL.Q          ACT.Q        GW-HEAD       CELL-BOT
     1     3    50  -0.148001E+01  -0.433041E+00   0.400852E-03   0.000000E+00
     1     5    55  -0.148001E+01  -0.340724E+00   0.345395E-03   0.000000E+00
 
 
 SOLVING FOR HEAD 
                                                   Max.-Head-Change                         Max.-Flux-Residual
  Residual-Control   Outer-Iter.   Inner-Iter.     Column Row Layer    Maximum-Head-Change  Column Row Layer    Maximum-Flux-Residual          L2-NORM 
          0                 1           3             1    1     1      -0.8047627669E-01       1    5    1        -0.1411723101E-02      0.2874808014E-01
          0                 2           2             1    1     1       0.7494305937E-02       1    5    1         0.1411627766E-03      0.2790578583E-02
          0                 3           2             9    7     1      -0.6267527170E-03       1    5    1        -0.1270560908E-04      0.2572919475E-03
          0                 4           1             3    1     1       0.4615922560E-04      26    4    1        -0.1292606751E-05      0.2193557519E-04
          0                 5           1             1    1     1      -0.2764703627E-05      26    4    1         0.1295571366E-06      0.1609430195E-05
          0                 6           1            69    1     1       0.1507997047E-06      26    4    1        -0.9812239909E-08      0.1027731927E-06

    ------------------------------------------------
       NWT REQUIRED            6 OUTER ITERATIONS 
       AND A TOTAL OF         10 INNER ITERATIONS.
    ------------------------------------------------

 NO OUTPUT CONTROL FOR STRESS PERIOD   27   TIME STEP   27
 
 WELLS WITH REDUCED PUMPING FOR STRESS PERIOD    27 TIME STEP    27
   LAY   ROW   COL         APPL.Q          ACT.Q        GW-HEAD       CELL-BOT
     1     3    50  -0.148000E+01  -0.431974E+00   0.400267E-03   0.000000E+00
     1     5    55  -0.148000E+01  -0.339663E+00   0.344778E-03   0.000000E+00
 
 
 SOLVING FOR HEAD 
                                                   Max.-Head-Change                         Max.-Flux-Residual
  Residual-Control   Outer-Iter.   Inner-Iter.     Column Row Layer    Maximum-Head-Change  Column Row Layer    Maximum-Flux-Residual          L2-NORM 
          0                 1           3             1    1     1      -0.8843065736E-01       1    5    1        -0.1410537399E-02      0.2864586059E-01
          0                 2           2             1    1     1       0.8226378383E-02       1    5    1         0.1410429746E-03      0.2780818601E-02
          0                 3           2             9    7     1      -0.6869801695E-03       4    3    1        -0.1270071071E-04      0.2563304354E-03
          0                 4           1             3    1     1       0.5043684030E-04      27    4    1        -0.1283720215E-05      0.2186141010E-04
          0                 5           1             1    1     1      -0.2940664218E-05      28    4    1         0.1266452596E-06      0.1589717266E-05
          0                 6           1            69    1     1       0.1599823064E-06      28    4    1        -0.9548143609E-08      0.1010188973E-06

    ------------------------------------------------
       NWT REQUIRED            6 OUTER ITERATIONS 
       AND A TOTAL OF         10 INNER ITERATIONS.
    ------------------------------------------------

 NO OUTPUT CONTROL FOR STRESS PERIOD   27   TIME STEP   28
 
 WELLS WITH REDUCED PUMPING FOR STRESS PERIOD    27 TIME STEP    28
   LAY   ROW   COL         APPL.Q          ACT.Q        GW-HEAD       CELL-BOT
     1     3    50  -0.147997E+01  -0.430802E+00   0.399628E-03   0.000000E+00
     1     5    55  -0.147997E+01  -0.338496E+00   0.344099E-03   0.000000E+00
 
 
 SOLVING FOR HEAD 
                                                   Max.-Head-Change                         Max.-Flux-Residual
  Residual-Control   Outer-Iter.   Inner-Iter.     Column Row Layer    Maximum-Head-Change  Column Row Layer    Maximum-Flux-Residual          L2-NORM 
          0                 1           3             1    1     1      -0.9715958933E-01       1    5    1        -0.1408861089E-02      0.2853337769E-01
          0                 2           2             1    1     1       0.9029383785E-02       1    7    1         0.1408750198E-03      0.2769872368E-02
          0                 3           2             9    7     1      -0.7528933368E-03       4    3    1        -0.1269792794E-04      0.2552794110E-03
          0                 4           1             3    1     1       0.5509214313E-04      27    4    1        -0.1292994119E-05      0.2178037457E-04
          0                 5           1            71    7     1      -0.3143931018E-05      28    4    1         0.1277443893E-06      0.1566781042E-05
          0                 6           1            69    1     1       0.1692920613E-06      28    4    1        -0.9594948835E-08      0.9907208940E-07

    ------------------------------------------------
       NWT REQUIRED            6 OUTER ITERATIONS 
       AND A TOTAL OF         10 INNER ITERATIONS.
    ------------------------------------------------

 NO OUTPUT CONTROL FOR STRESS PERIOD   27   TIME STEP   29
 
 WELLS WITH REDUCED PUMPING FOR STRESS PERIOD    27 TIME STEP    29
   LAY   ROW   COL         APPL.Q          ACT.Q        GW-HEAD       CELL-BOT
     1     3    50  -0.148002E+01  -0.429534E+00   0.398924E-03   0.000000E+00
     1     5    55  -0.148002E+01  -0.337238E+00   0.343358E-03   0.000000E+00
 
 
 SOLVING FOR HEAD 
                                                   Max.-Head-Change                         Max.-Flux-Residual
  Residual-Control   Outer-Iter.   Inner-Iter.     Column Row Layer    Maximum-Head-Change  Column Row Layer    Maximum-Flux-Residual          L2-NORM 
          0                 1           3             1    1     1      -0.1067419094E+00       1    7    1        -0.1407303299E-02      0.2840856761E-01
          0                 2           3             1    1     1       0.9911177826E-02       1    1    1         0.1407202868E-03      0.2757932324E-02
          0                 3           2             9    7     1      -0.8256579177E-03       1    7    1        -0.1266589240E-04      0.2541635645E-03
          0                 4           1             3    1     1       0.6016843061E-04      28    4    1        -0.1284807988E-05      0.2168749502E-04
          0                 5           1            71    7     1      -0.3368219675E-05      28    4    1         0.1292784457E-06      0.1540109052E-05
          0                 6           1            69    7     1       0.1790909826E-06      28    4    1        -0.9660672262E-08      0.9696436441E-07

    ------------------------------------------------
       NWT REQUIRED            6 OUTER ITERATIONS 
       AND A TOTAL OF         11 INNER ITERATIONS.
    ------------------------------------------------

 NO OUTPUT CONTROL FOR STRESS PERIOD   27   TIME STEP   30
 
 WELLS WITH REDUCED PUMPING FOR STRESS PERIOD    27 TIME STEP    30
   LAY   ROW   COL         APPL.Q          ACT.Q        GW-HEAD       CELL-BOT
     1     3    50  -0.147999E+01  -0.428138E+00   0.398160E-03   0.000000E+00
     1     5    55  -0.147999E+01  -0.335852E+00   0.342550E-03   0.000000E+00
 



 STREAM LISTING     PERIOD     27   STEP       30

 LAYER ROW COL. STREAM  RCH.   FLOW INTO    STREAM     FLOW OUT OF   OVRLND.    DIRECT     STREAM      STREAM      STREAM     STREAM  STREAMBED   FLOW TO   CHNG. UNSAT. 
                SEG.NO.  NO.   STRM. RCH.    LOSS       STRM. RCH.   RUNOFF     PRECIP       ET         HEAD        DEPTH      WIDTH  CONDCTNC.   WAT. TAB.

   1    4    1     1     1    7.5000E-01  5.0822E-04   7.4949E-01  0.000E+00  0.000E+00  0.000E+00  1.40495E+02  6.447E-01  2.584E+00  4.440E-04  4.037E-04  1.046E-04
   1    4    2     1     2    7.4949E-01  5.0805E-04   7.4898E-01  0.000E+00  0.000E+00  0.000E+00  1.40194E+02  6.445E-01  2.584E+00  4.439E-04  4.035E-04  1.046E-04
   1    4    3     1     3    7.4898E-01  5.0788E-04   7.4848E-01  0.000E+00  0.000E+00  0.000E+00  1.39894E+02  6.443E-01  2.583E+00  4.439E-04  4.033E-04  1.046E-04
   1    4    4     1     4    7.4848E-01  5.0771E-04   7.4797E-01  0.000E+00  0.000E+00  0.000E+00  1.39594E+02  6.441E-01  2.583E+00  4.438E-04  4.031E-04  1.046E-04
   1    4    5     1     5    7.4797E-01  5.0755E-04   7.4746E-01  0.000E+00  0.000E+00  0.000E+00  1.39294E+02  6.438E-01  2.583E+00  4.437E-04  4.030E-04  1.046E-04
   1    4    6     1     6    7.4746E-01  5.0738E-04   7.4695E-01  0.000E+00  0.000E+00  0.000E+00  1.38994E+02  6.436E-01  2.583E+00  4.436E-04  4.028E-04  1.046E-04
   1    4    7     1     7    7.4695E-01  5.0721E-04   7.4645E-01  0.000E+00  0.000E+00  0.000E+00  1.38693E+02  6.434E-01  2.582E+00  4.436E-04  4.026E-04  1.046E-04
   1    4    8     1     8    7.4645E-01  5.0704E-04   7.4594E-01  0.000E+00  0.000E+00  0.000E+00  1.38393E+02  6.432E-01  2.582E+00  4.435E-04  4.024E-04  1.046E-04
   1    4    9     1     9    7.4594E-01  5.0687E-04   7.4543E-01  0.000E+00  0.000E+00  0.000E+00  1.38093E+02  6.430E-01  2.582E+00  4.434E-04  4.023E-04  1.046E-04
   1    4   10     1    10    7.4543E-01  5.0670E-04   7.4493E-01  0.000E+00  0.000E+00  0.000E+00  1.37793E+02  6.428E-01  2.582E+00  4.434E-04  4.021E-04  1.046E-04
   1    4   11     1    11    7.4493E-01  5.0653E-04   7.4442E-01  0.000E+00  0.000E+00  0.000E+00  1.37493E+02  6.426E-01  2.581E+00  4.433E-04  4.020E-04  1.046E-04
   1    4   12     1    12    7.4442E-01  5.0636E-04   7.4391E-01  0.000E+00  0.000E+00  0.000E+00  1.37192E+02  6.424E-01  2.581E+00  4.432E-04  4.018E-04  1.046E-04
   1    4   13     1    13    7.4391E-01  5.0619E-04   7.4341E-01  0.000E+00  0.000E+00  0.000E+00  1.36892E+02  6.422E-01  2.581E+00  4.432E-04  4.017E-04  1.045E-04
   1    4   14     1    14    7.4341E-01  5.0602E-04   7.4290E-01  0.000E+00  0.000E+00  0.000E+00  1.36592E+02  6.420E-01  2.581E+00  4.431E-04  4.015E-04  1.045E-04
   1    4   15     1    15    7.4290E-01  5.0585E-04   7.4239E-01  0.000E+00  0.000E+00  0.000E+00  1.36292E+02  6.418E-01  2.580E+00  4.430E-04  4.014E-04  1.045E-04
   1    4   16     1    16    7.4239E-01  5.0569E-04   7.4189E-01  0.000E+00  0.000E+00  0.000E+00  1.35992E+02  6.416E-01  2.580E+00  4.430E-04  4.090E-04  9.670E-05
   1    4   17     1    17    7.4189E-01  5.0552E-04   7.4138E-01  0.000E+00  0.000E+00  0.000E+00  1.35691E+02  6.414E-01  2.580E+00  4.429E-04  4.302E-04  7.535E-05
   1    4   18     1    18    7.4138E-01  5.0535E-04   7.4088E-01  0.000E+00  0.000E+00  0.000E+00  1.35391E+02  6.412E-01  2.580E+00  4.428E-04  4.301E-04  7.529E-05
   1    4   19     1    19    7.4088E-01  5.0518E-04   7.4037E-01  0.000E+00  0.000E+00  0.000E+00  1.35091E+02  6.409E-01  2.579E+00  4.428E-04  4.299E-04  7.524E-05
   1    4   20     1    20    7.4037E-01  5.0501E-04   7.3987E-01  0.000E+00  0.000E+00  0.000E+00  1.34791E+02  6.407E-01  2.579E+00  4.427E-04  4.298E-04  7.517E-05
   1    4   21     1    21    7.3987E-01  5.0484E-04   7.3936E-01  0.000E+00  0.000E+00  0.000E+00  1.34491E+02  6.405E-01  2.579E+00  4.426E-04  4.297E-04  7.509E-05
   1    4   22     1    22    7.3936E-01  5.0467E-04   7.3886E-01  0.000E+00  0.000E+00  0.000E+00  1.34190E+02  6.403E-01  2.579E+00  4.426E-04  4.297E-04  7.499E-05
   1    4   23     1    23    7.3886E-01  5.0450E-04   7.3835E-01  0.000E+00  0.000E+00  0.000E+00  1.33890E+02  6.401E-01  2.578E+00  4.425E-04  4.296E-04  7.486E-05
   1    4   24     1    24    7.3835E-01  5.0434E-04   7.3785E-01  0.000E+00  0.000E+00  0.000E+00  1.33590E+02  6.399E-01  2.578E+00  4.424E-04  4.296E-04  7.470E-05
   1    4   25     1    25    7.3785E-01  5.0417E-04   7.3735E-01  0.000E+00  0.000E+00  0.000E+00  1.33290E+02  6.397E-01  2.578E+00  4.424E-04  4.297E-04  7.451E-05
   1    4   26     1    26    7.3735E-01  5.0400E-04   7.3684E-01  0.000E+00  0.000E+00  0.000E+00  1.32990E+02  6.395E-01  2.578E+00  4.423E-04  4.297E-04  7.428E-05
   1    4   27     1    27    7.3684E-01  5.0383E-04   7.3634E-01  0.000E+00  0.000E+00  0.000E+00  1.32689E+02  6.393E-01  2.577E+00  4.422E-04  4.557E-04  4.812E-05
   1    4   28     1    28    7.3634E-01  5.0366E-04   7.3583E-01  0.000E+00  0.000E+00  0.000E+00  1.32389E+02  6.391E-01  2.577E+00  4.422E-04  4.884E-04  1.529E-05
   1    4   29     1    29    7.3583E-01  5.0349E-04   7.3533E-01  0.000E+00  0.000E+00  0.000E+00  1.32089E+02  6.389E-01  2.577E+00  4.421E-04  4.888E-04  1.466E-05
   1    4   30     1    30    7.3533E-01  5.0332E-04   7.3483E-01  0.000E+00  0.000E+00  0.000E+00  1.31789E+02  6.387E-01  2.577E+00  4.420E-04  4.893E-04  1.398E-05
   1    4   31     1    31    7.3483E-01  5.0316E-04   7.3432E-01  0.000E+00  0.000E+00  0.000E+00  1.31488E+02  6.385E-01  2.576E+00  4.420E-04  4.899E-04  1.324E-05
   1    4   32     1    32    7.3432E-01  5.0299E-04   7.3382E-01  0.000E+00  0.000E+00  0.000E+00  1.31188E+02  6.383E-01  2.576E+00  4.419E-04  4.906E-04  1.241E-05
   1    4   33     1    33    7.3382E-01  5.0282E-04   7.3332E-01  0.000E+00  0.000E+00  0.000E+00  1.30888E+02  6.381E-01  2.576E+00  4.418E-04  4.913E-04  1.148E-05
   1    4   34     1    34    7.3332E-01  5.0265E-04   7.3282E-01  0.000E+00  0.000E+00  0.000E+00  1.30588E+02  6.378E-01  2.576E+00  4.418E-04  4.922E-04  1.045E-05
   1    4   35     1    35    7.3282E-01  5.0248E-04   7.3231E-01  0.000E+00  0.000E+00  0.000E+00  1.30288E+02  6.376E-01  2.575E+00  4.417E-04  4.932E-04  9.280E-06
   1    4   36     1    36    7.3231E-01  5.0232E-04   7.3181E-01  0.000E+00  0.000E+00  0.000E+00  1.29987E+02  6.374E-01  2.575E+00  4.416E-04  4.943E-04  7.968E-06
   1    4   37     1    37    7.3181E-01  5.0215E-04   7.3131E-01  0.000E+00  0.000E+00  0.000E+00  1.29687E+02  6.372E-01  2.575E+00  4.416E-04  4.957E-04  6.481E-06
   1    4   38     1    38    7.3131E-01  5.0198E-04   7.3081E-01  0.000E+00  0.000E+00  0.000E+00  1.29387E+02  6.370E-01  2.575E+00  4.415E-04  4.973E-04  4.695E-06
   1    4   39     1    39    7.3081E-01  5.0181E-04   7.3030E-01  0.000E+00  0.000E+00  0.000E+00  1.29087E+02  6.368E-01  2.574E+00  4.414E-04  4.757E-04  2.609E-05
   1    4   40     1    40    7.3030E-01  5.0164E-04   7.2980E-01  0.000E+00  0.000E+00  0.000E+00  1.28787E+02  6.366E-01  2.574E+00  4.414E-04  4.346E-04  6.703E-05
   1    4   41     1    41    7.2980E-01  5.0147E-04   7.2930E-01  0.000E+00  0.000E+00  0.000E+00  1.28486E+02  6.364E-01  2.574E+00  4.413E-04  4.366E-04  6.487E-05
   1    4   42     1    42    7.2930E-01  5.0131E-04   7.2880E-01  0.000E+00  0.000E+00  0.000E+00  1.28186E+02  6.362E-01  2.574E+00  4.412E-04  4.390E-04  6.234E-05
   1    4   43     1    43    7.2880E-01  5.0114E-04   7.2830E-01  0.000E+00  0.000E+00  0.000E+00  1.27886E+02  6.360E-01  2.573E+00  4.412E-04  4.417E-04  5.946E-05
   1    4   44     1    44    7.2830E-01  5.0097E-04   7.2780E-01  0.000E+00  0.000E+00  0.000E+00  1.27586E+02  6.358E-01  2.573E+00  4.411E-04  4.712E-04  2.977E-05
   1    4   45     1    45    7.2780E-01  5.0080E-04   7.2730E-01  0.000E+00  0.000E+00  0.000E+00  1.27286E+02  6.356E-01  2.573E+00  4.410E-04  5.022E-04 -1.399E-06
   1    4   46     1    46    7.2730E-01  5.0064E-04   7.2680E-01  0.000E+00  0.000E+00  0.000E+00  1.26985E+02  6.354E-01  2.573E+00  4.409E-04  5.066E-04 -6.007E-06
   1    4   47     1    47    7.2680E-01  5.0047E-04   7.2630E-01  0.000E+00  0.000E+00  0.000E+00  1.26685E+02  6.352E-01  2.572E+00  4.409E-04  5.117E-04 -1.125E-05
   1    4   48     1    48    7.2630E-01  5.0030E-04   7.2580E-01  0.000E+00  0.000E+00  0.000E+00  1.26385E+02  6.349E-01  2.572E+00  4.408E-04  5.744E-04 -7.409E-05
   1    4   49     1    49    7.2580E-01  5.0013E-04   7.2530E-01  0.000E+00  0.000E+00  0.000E+00  1.26085E+02  6.347E-01  2.572E+00  4.407E-04  6.267E-04 -1.265E-04
   1    4   50     1    50    7.2530E-01  4.9996E-04   7.2480E-01  0.000E+00  0.000E+00  0.000E+00  1.25785E+02  6.345E-01  2.572E+00  4.407E-04  6.848E-04 -1.848E-04
   1    4   51     1    51    7.2480E-01  4.9980E-04   7.2430E-01  0.000E+00  0.000E+00  0.000E+00  1.25484E+02  6.343E-01  2.571E+00  4.406E-04  6.771E-04 -1.773E-04
   1    4   52     1    52    7.2430E-01  4.9963E-04   7.2380E-01  0.000E+00  0.000E+00  0.000E+00  1.25184E+02  6.341E-01  2.571E+00  4.405E-04  6.743E-04 -1.747E-04
   1    4   53     1    53    7.2380E-01  4.9946E-04   7.2330E-01  0.000E+00  0.000E+00  0.000E+00  1.24884E+02  6.339E-01  2.571E+00  4.405E-04  6.734E-04 -1.739E-04
   1    4   54     1    54    7.2330E-01  4.9929E-04   7.2280E-01  0.000E+00  0.000E+00  0.000E+00  1.24584E+02  6.337E-01  2.571E+00  4.404E-04  6.744E-04 -1.751E-04
   1    4   55     1    55    7.2280E-01  4.9913E-04   7.2230E-01  0.000E+00  0.000E+00  0.000E+00  1.24284E+02  6.335E-01  2.570E+00  4.403E-04  6.787E-04 -1.795E-04
   1    4   56     1    56    7.2230E-01  4.9896E-04   7.2180E-01  0.000E+00  0.000E+00  0.000E+00  1.23983E+02  6.333E-01  2.570E+00  4.403E-04  6.196E-04 -1.206E-04
   1    4   57     1    57    7.2180E-01  4.9879E-04   7.2130E-01  0.000E+00  0.000E+00  0.000E+00  1.23683E+02  6.331E-01  2.570E+00  4.402E-04  5.652E-04 -6.636E-05
   1    4   58     1    58    7.2130E-01  4.9863E-04   7.2080E-01  0.000E+00  0.000E+00  0.000E+00  1.23383E+02  6.329E-01  2.570E+00  4.401E-04  5.181E-04 -1.948E-05
   1    4   59     1    59    7.2080E-01  4.9846E-04   7.2030E-01  0.000E+00  0.000E+00  0.000E+00  1.23083E+02  6.327E-01  2.569E+00  4.401E-04  4.948E-04  3.630E-06
   1    4   60     1    60    7.2030E-01  4.9829E-04   7.1981E-01  0.000E+00  0.000E+00  0.000E+00  1.22782E+02  6.325E-01  2.569E+00  4.400E-04  4.891E-04  9.187E-06
   1    4   61     1    61    7.1981E-01  4.9812E-04   7.1931E-01  0.000E+00  0.000E+00  0.000E+00  1.22482E+02  6.323E-01  2.569E+00  4.399E-04  4.841E-04  1.399E-05
   1    4   62     1    62    7.1931E-01  4.9796E-04   7.1881E-01  0.000E+00  0.000E+00  0.000E+00  1.22182E+02  6.321E-01  2.569E+00  4.399E-04  4.774E-04  2.052E-05
   1    4   63     1    63    7.1881E-01  4.9779E-04   7.1831E-01  0.000E+00  0.000E+00  0.000E+00  1.21882E+02  6.318E-01  2.568E+00  4.398E-04  4.260E-04  7.184E-05
   1    4   64     1    64    7.1831E-01  4.9762E-04   7.1781E-01  0.000E+00  0.000E+00  0.000E+00  1.21582E+02  6.316E-01  2.568E+00  4.397E-04  4.230E-04  7.459E-05
   1    4   65     1    65    7.1781E-01  4.9746E-04   7.1732E-01  0.000E+00  0.000E+00  0.000E+00  1.21281E+02  6.314E-01  2.568E+00  4.397E-04  4.206E-04  7.687E-05
   1    4   66     1    66    7.1732E-01  4.9729E-04   7.1682E-01  0.000E+00  0.000E+00  0.000E+00  1.20981E+02  6.312E-01  2.568E+00  4.396E-04  4.398E-04  5.753E-05
   1    4   67     1    67    7.1682E-01  4.9712E-04   7.1632E-01  0.000E+00  0.000E+00  0.000E+00  1.20681E+02  6.310E-01  2.567E+00  4.395E-04  4.822E-04  1.494E-05
   1    4   68     1    68    7.1632E-01  4.9695E-04   7.1582E-01  0.000E+00  0.000E+00  0.000E+00  1.20381E+02  6.308E-01  2.567E+00  4.395E-04  4.806E-04  1.632E-05
   1    4   69     1    69    7.1582E-01  4.9679E-04   7.1533E-01  0.000E+00  0.000E+00  0.000E+00  1.20081E+02  6.306E-01  2.567E+00  4.394E-04  4.792E-04  1.757E-05
   1    4   70     1    70    7.1533E-01  4.9662E-04   7.1483E-01  0.000E+00  0.000E+00  0.000E+00  1.19780E+02  6.304E-01  2.567E+00  4.393E-04  4.782E-04  1.847E-05
   1    4   71     1    71    7.1483E-01  4.9645E-04   7.1433E-01  0.000E+00  0.000E+00  0.000E+00  1.19480E+02  6.302E-01  2.566E+00  4.393E-04  4.774E-04  1.909E-05
   1    4   72     1    72    7.1433E-01  4.9629E-04   7.1384E-01  0.000E+00  0.000E+00  0.000E+00  1.19180E+02  6.300E-01  2.566E+00  4.392E-04  4.768E-04  1.946E-05
   1    4   73     1    73    7.1384E-01  4.9612E-04   7.1334E-01  0.000E+00  0.000E+00  0.000E+00  1.18880E+02  6.298E-01  2.566E+00  4.391E-04  4.765E-04  1.960E-05
   1    4   74     1    74    7.1334E-01  4.9595E-04   7.1285E-01  0.000E+00  0.000E+00  0.000E+00  1.18580E+02  6.296E-01  2.566E+00  4.391E-04  4.764E-04  1.951E-05
   1    4   75     1    75    7.1285E-01  4.9579E-04   7.1235E-01  0.000E+00  0.000E+00  0.000E+00  1.18279E+02  6.294E-01  2.565E+00  4.390E-04  4.766E-04  1.920E-05
   1    4   76     1    76    7.1235E-01  4.9562E-04   7.1186E-01  0.000E+00  0.000E+00  0.000E+00  1.17979E+02  6.292E-01  2.565E+00  4.389E-04  4.769E-04  1.867E-05
   1    4   77     1    77    7.1186E-01  4.9545E-04   7.1136E-01  0.000E+00  0.000E+00  0.000E+00  1.17679E+02  6.290E-01  2.565E+00  4.389E-04  4.715E-04  2.395E-05
   1    4   78     1    78    7.1136E-01  4.9529E-04   7.1086E-01  0.000E+00  0.000E+00  0.000E+00  1.17379E+02  6.288E-01  2.565E+00  4.388E-04  4.196E-04  7.569E-05
   1    4   79     1    79    7.1086E-01  4.9512E-04   7.1037E-01  0.000E+00  0.000E+00  0.000E+00  1.17079E+02  6.285E-01  2.565E+00  4.387E-04  4.204E-04  7.473E-05
   1    4   80     1    80    7.1037E-01  4.9495E-04   7.0987E-01  0.000E+00  0.000E+00  0.000E+00  1.16778E+02  6.283E-01  2.564E+00  4.387E-04  4.214E-04  7.359E-05
   1    4   81     1    81    7.0987E-01  4.9479E-04   7.0938E-01  0.000E+00  0.000E+00  0.000E+00  1.16478E+02  6.281E-01  2.564E+00  4.386E-04  4.225E-04  7.227E-05
   1    4   82     1    82    7.0938E-01  4.9462E-04   7.0888E-01  0.000E+00  0.000E+00  0.000E+00  1.16178E+02  6.279E-01  2.564E+00  4.385E-04  4.238E-04  7.078E-05
   1    4   83     1    83    7.0888E-01  4.9445E-04   7.0839E-01  0.000E+00  0.000E+00  0.000E+00  1.15878E+02  6.277E-01  2.564E+00  4.385E-04  4.253E-04  6.911E-05
   1    4   84     1    84    7.0839E-01  4.9429E-04   7.0790E-01  0.000E+00  0.000E+00  0.000E+00  1.15578E+02  6.275E-01  2.563E+00  4.384E-04  4.270E-04  6.726E-05
   1    4   85     1    85    7.0790E-01  4.9412E-04   7.0740E-01  0.000E+00  0.000E+00  0.000E+00  1.15277E+02  6.273E-01  2.563E+00  4.383E-04  4.289E-04  6.524E-05
   1    4   86     1    86    7.0740E-01  4.9396E-04   7.0691E-01  0.000E+00  0.000E+00  0.000E+00  1.14977E+02  6.271E-01  2.563E+00  4.383E-04  4.315E-04  6.249E-05
   1    4   87     1    87    7.0691E-01  4.9379E-04   7.0641E-01  0.000E+00  0.000E+00  0.000E+00  1.14677E+02  6.269E-01  2.563E+00  4.382E-04  4.341E-04  5.972E-05
   1    4   88     1    88    7.0641E-01  4.9362E-04   7.0592E-01  0.000E+00  0.000E+00  0.000E+00  1.14377E+02  6.267E-01  2.562E+00  4.381E-04  4.369E-04  5.675E-05
   1    4   89     1    89    7.0592E-01  4.9346E-04   7.0543E-01  0.000E+00  0.000E+00  0.000E+00  1.14076E+02  6.265E-01  2.562E+00  4.381E-04  4.399E-04  5.357E-05
   1    4   90     1    90    7.0543E-01  4.9329E-04   7.0493E-01  0.000E+00  0.000E+00  0.000E+00  1.13776E+02  6.263E-01  2.562E+00  4.380E-04  4.505E-04  4.279E-05
   1    4   91     1    91    7.0493E-01  4.9312E-04   7.0444E-01  0.000E+00  0.000E+00  0.000E+00  1.13476E+02  6.261E-01  2.562E+00  4.379E-04  4.655E-04  2.764E-05
   1    4   92     1    92    7.0444E-01  4.9296E-04   7.0395E-01  0.000E+00  0.000E+00  0.000E+00  1.13176E+02  6.259E-01  2.561E+00  4.378E-04  4.800E-04  1.295E-05
   1    4   93     1    93    7.0395E-01  4.9279E-04   7.0346E-01  0.000E+00  0.000E+00  0.000E+00  1.12876E+02  6.257E-01  2.561E+00  4.378E-04  4.941E-04 -1.315E-06
   1    4   94     1    94    7.0346E-01  4.9263E-04   7.0296E-01  0.000E+00  0.000E+00  0.000E+00  1.12575E+02  6.255E-01  2.561E+00  4.377E-04  4.949E-04 -2.265E-06
   1    4   95     1    95    7.0296E-01  4.9246E-04   7.0247E-01  0.000E+00  0.000E+00  0.000E+00  1.12275E+02  6.252E-01  2.561E+00  4.376E-04  4.945E-04 -2.040E-06
   1    4   96     1    96    7.0247E-01  4.9229E-04   7.0198E-01  0.000E+00  0.000E+00  0.000E+00  1.11975E+02  6.250E-01  2.560E+00  4.376E-04  5.075E-04 -1.518E-05
   1    4   97     1    97    7.0198E-01  4.9213E-04   7.0149E-01  0.000E+00  0.000E+00  0.000E+00  1.11675E+02  6.248E-01  2.560E+00  4.375E-04  5.201E-04 -2.802E-05
   1    4   98     1    98    7.0149E-01  4.9196E-04   7.0099E-01  0.000E+00  0.000E+00  0.000E+00  1.11375E+02  6.246E-01  2.560E+00  4.374E-04  5.267E-04 -3.476E-05
   1    4   99     1    99    7.0099E-01  4.9180E-04   7.0050E-01  0.000E+00  0.000E+00  0.000E+00  1.11074E+02  6.244E-01  2.560E+00  4.374E-04  5.307E-04 -3.886E-05
   1    4  100     1   100    7.0050E-01  4.9163E-04   7.0001E-01  0.000E+00  0.000E+00  0.000E+00  1.10774E+02  6.242E-01  2.559E+00  4.373E-04  5.344E-04 -4.272E-05



1
  VOLUMETRIC BUDGET FOR UNSATURATED ZONE BENEATH STREAMS AT END OF TIME STEP    30 STRESS PERIOD  27
  ------------------------------------------------------------------------------------------------

    CUMULATIVE VOLUMES             L**3    RATES FOR THIS TIME STEP         L**3/T
    ------------------                     ------------------------


          STREAM LOSS =     27546898.0000            STREAM LOSS =        4.9990E-02
    CHANGE IN STORAGE =      1105368.1250      CHANGE IN STORAGE =        2.6555E-03
       RECHARGE TO GW =     26448664.0000         RECHARGE TO GW =        4.7334E-02

             TOTAL IN =     27546898.0000               TOTAL IN =        4.9990E-02

            TOTAL OUT =     27554032.0000              TOTAL OUT =        4.9990E-02

             IN - OUT =        -7134.0000               IN - OUT =       -1.1176E-08

  PERCENT DISCREPANCY =           -0.01      PERCENT DISCREPANCY =            -0.00



1
  VOLUMETRIC BUDGET FOR ENTIRE MODEL AT END OF TIME STEP   30, STRESS PERIOD  27
  ------------------------------------------------------------------------------

     CUMULATIVE VOLUMES      L**3       RATES FOR THIS TIME STEP      L**3/T
     ------------------                 ------------------------

           IN:                                      IN:
           ---                                      ---
             STORAGE     =    95280696.0000               STORAGE     =           0.6996
       CONSTANT HEAD     =           0.0000         CONSTANT HEAD     =           0.0000
               WELLS     =           0.0000                 WELLS     =           0.0000
     HEAD DEP BOUNDS     =       35196.8906       HEAD DEP BOUNDS     =       1.7063E-02
      STREAM LEAKAGE     =    26448326.0000        STREAM LEAKAGE     =       4.7334E-02

                TOTAL IN =   121764224.0000                  TOTAL IN =           0.7640

          OUT:                                     OUT:
          ----                                     ----
             STORAGE     =     3026919.7500               STORAGE     =           0.0000
       CONSTANT HEAD     =           0.0000         CONSTANT HEAD     =           0.0000
               WELLS     =   102377968.0000                 WELLS     =           0.7640
     HEAD DEP BOUNDS     =    16359348.0000       HEAD DEP BOUNDS     =           0.0000
      STREAM LEAKAGE     =           0.0000        STREAM LEAKAGE     =           0.0000

               TOTAL OUT =   121764240.0000                 TOTAL OUT =           0.7640

                IN - OUT =         -16.0000                  IN - OUT =           0.0000

     PERCENT DISCREPANCY =          -0.00         PERCENT DISCREPANCY =           0.00






         TIME SUMMARY AT END OF TIME STEP   30 IN STRESS PERIOD   27
                    SECONDS     MINUTES      HOURS       DAYS        YEARS
                    -----------------------------------------------------------
   TIME STEP LENGTH 2.49961E+05  4166.0      69.434      2.8931     7.92080E-03
 STRESS PERIOD TIME 2.59200E+06  43200.      720.00      30.000     8.21355E-02
         TOTAL TIME 6.99840E+07 1.16640E+06  19440.      810.00      2.2177    
1
1
                            STRESS PERIOD NO.   28, LENGTH =   2592000.    
                            -----------------------------------------------

                              NUMBER OF TIME STEPS =    30

                               MULTIPLIER FOR DELT =     1.100

                            INITIAL TIME STEP SIZE =   15757.40    

 REUSING NON-PARAMETER WELLS FROM LAST STRESS PERIOD

      1 WELL 

 REUSING NON-PARAMETER GHB CELLS FROM LAST STRESS PERIOD

      7 GHB CELLS



 CLASSIFICATION & COUNT OF STREAM SEGMENTS BASED ON SOURCE OF INFLOW:

                HEADWATER     DIVERSION     RECEIVES TRIBUTARY FLOW
                ---------     ---------     -----------------------
                     1              0               0



                    INPUT DATA FOR EACH STREAM SEGMENT
 ---------------------------------------------------------------------------------------------

 SEGMENT    SEG.     INFLOW   OVERLAND   STREAM    STREAM   ICALC  OUTFLOW  DIVERSION PRIORITY
    NO.    LENGTH     RATE     RUNOFF      ET       PPT.    METH.  TO SEG.  FROM SEG.    NO.

      1  2.000E+04 1.730E+00 0.000E+00 0.000E+00 0.000E+00    2        0        0        0


         STREAMBED PROPERTIES AND STREAM DIMENSIONS

 SEGMENT     BED HYD. COND.      BED THICKNESS     ELEV.-TOP OF BED     WIDTH OF STREAM     DEPTH OF STREAM    STREAM ROUGHNESS
    No.     UPPER     LOWER     UPPER     LOWER     UPPER     LOWER     UPPER     LOWER     UPPER     LOWER   CHANNEL      BANK

     1  3.500E-07 3.500E-07                                                                                 3.000E-02 4.000E-02

  EIGHT POINT CROSS-SECTION DATA FOR SEGMENTS WITH ICALC = 2
    X VALUES X VALUES START FROM LEFT SIDE LOOKING DOWNSTREAM

     SEGMENT NO.        X1        X2        X3        X4        X5        X6        X7        X8
            1      0.000E+00 2.000E+00 4.000E+00 6.000E+00 8.000E+00 1.000E+01 1.200E+01 1.400E+01

    Z VALUES ARE RELATIVE TO STREAMBED ELEVATION

     SEGMENT NO.          Z1        Z2        Z3        Z4        Z5        Z6        Z7        Z8
            1      6.000E+00 4.500E+00 3.500E+00 0.000E+00 3.000E-01 3.500E+00 4.500E+00 6.000E+00



 
 SOLVING FOR HEAD 
                                                   Max.-Head-Change                         Max.-Flux-Residual
  Residual-Control   Outer-Iter.   Inner-Iter.     Column Row Layer    Maximum-Head-Change  Column Row Layer    Maximum-Flux-Residual          L2-NORM 
          0                 1           2             1    1     1      -0.6757963048E-02      50    3    1         0.9800023354E-01      0.1277232708E+00
          0                 2           2             1    1     1       0.6597187751E-03      50    3    1        -0.1372493145E-01      0.1819621992E-01
          0                 3           1             1    1     1      -0.5812385508E-04      50    3    1         0.1192084661E-02      0.1567731911E-02
          0                 4           1             1    1     1       0.4569308196E-05      50    3    1        -0.9583285837E-04      0.1261747242E-03
          0                 5           1             1    1     1      -0.3159835774E-06      50    3    1         0.6734766719E-05      0.8870200960E-05

    ------------------------------------------------
       NWT REQUIRED            5 OUTER ITERATIONS 
       AND A TOTAL OF          7 INNER ITERATIONS.
    ------------------------------------------------

 NO OUTPUT CONTROL FOR STRESS PERIOD   28   TIME STEP    1
 
 WELLS WITH REDUCED PUMPING FOR STRESS PERIOD    28 TIME STEP     1
   LAY   ROW   COL         APPL.Q          ACT.Q        GW-HEAD       CELL-BOT
     1     3    50  -0.114122E+01  -0.428042E+00   0.465833E-03   0.000000E+00
     1     5    55  -0.114122E+01  -0.335759E+00   0.398573E-03   0.000000E+00
 
 
 SOLVING FOR HEAD 
                                                   Max.-Head-Change                         Max.-Flux-Residual
  Residual-Control   Outer-Iter.   Inner-Iter.     Column Row Layer    Maximum-Head-Change  Column Row Layer    Maximum-Flux-Residual          L2-NORM 
          0                 1           2             1    1     1      -0.7432007244E-02       1    1    1        -0.1405546646E-02      0.2826397726E-01
          0                 2           2             1    1     1       0.7242860508E-03       1    1    1         0.1405544840E-03      0.2744385684E-02
          0                 3           1             1    1     1      -0.6370926025E-04       1    1    1        -0.1264992526E-04      0.2493455402E-03
          0                 4           1             1    1     1       0.5000914233E-05       1    1    1         0.1013259013E-05      0.2035882538E-04
          0                 5           1             1    1     1      -0.3453720925E-06       1    1    1        -0.7123113832E-07      0.1456738207E-05

    ------------------------------------------------
       NWT REQUIRED            5 OUTER ITERATIONS 
       AND A TOTAL OF          7 INNER ITERATIONS.
    ------------------------------------------------

 NO OUTPUT CONTROL FOR STRESS PERIOD   28   TIME STEP    2
 
 WELLS WITH REDUCED PUMPING FOR STRESS PERIOD    28 TIME STEP     2
   LAY   ROW   COL         APPL.Q          ACT.Q        GW-HEAD       CELL-BOT
     1     3    50  -0.114019E+01  -0.427951E+00   0.466034E-03   0.000000E+00
     1     5    55  -0.114019E+01  -0.335668E+00   0.398724E-03   0.000000E+00
 
 
 SOLVING FOR HEAD 
                                                   Max.-Head-Change                         Max.-Flux-Residual
  Residual-Control   Outer-Iter.   Inner-Iter.     Column Row Layer    Maximum-Head-Change  Column Row Layer    Maximum-Flux-Residual          L2-NORM 
          0                 1           2             1    1     1      -0.8173152073E-02       1    1    1        -0.1405432143E-02      0.2824960305E-01
          0                 2           2             1    1     1       0.7950866798E-03       1    1    1         0.1405429944E-03      0.2742793599E-02
          0                 3           1             1    1     1      -0.6981549541E-04       1    1    1        -0.1264889553E-04      0.2493548206E-03
          0                 4           1             1    1     1       0.5471269756E-05       1    1    1         0.1013176465E-05      0.2039422900E-04
          0                 5           1             1    1     1      -0.3772952619E-06       1    1    1        -0.7122533674E-07      0.1462356811E-05

    ------------------------------------------------
       NWT REQUIRED            5 OUTER ITERATIONS 
       AND A TOTAL OF          7 INNER ITERATIONS.
    ------------------------------------------------

 NO OUTPUT CONTROL FOR STRESS PERIOD   28   TIME STEP    3
 
 WELLS WITH REDUCED PUMPING FOR STRESS PERIOD    28 TIME STEP     3
   LAY   ROW   COL         APPL.Q          ACT.Q        GW-HEAD       CELL-BOT
     1     3    50  -0.113985E+01  -0.427846E+00   0.466048E-03   0.000000E+00
     1     5    55  -0.113985E+01  -0.335564E+00   0.398720E-03   0.000000E+00
 
 
 SOLVING FOR HEAD 
                                                   Max.-Head-Change                         Max.-Flux-Residual
  Residual-Control   Outer-Iter.   Inner-Iter.     Column Row Layer    Maximum-Head-Change  Column Row Layer    Maximum-Flux-Residual          L2-NORM 
          0                 1           2             1    1     1      -0.8988052956E-02       1    1    1        -0.1405306490E-02      0.2823142048E-01
          0                 2           2             1    1     1       0.8727197702E-03       1    1    1         0.1405303824E-03      0.2741552153E-02
          0                 3           1             1    1     1      -0.7649046809E-04       1    1    1        -0.1264776553E-04      0.2494517463E-03
          0                 4           1             1    1     1       0.5983715734E-05       1    1    1         0.1013085885E-05      0.2044018679E-04
          0                 5           1             1    1     1      -0.4119534373E-06       1    1    1        -0.7121896672E-07      0.1468972379E-05

    ------------------------------------------------
       NWT REQUIRED            5 OUTER ITERATIONS 
       AND A TOTAL OF          7 INNER ITERATIONS.
    ------------------------------------------------

 NO OUTPUT CONTROL FOR STRESS PERIOD   28   TIME STEP    4
 
 WELLS WITH REDUCED PUMPING FOR STRESS PERIOD    28 TIME STEP     4
   LAY   ROW   COL         APPL.Q          ACT.Q        GW-HEAD       CELL-BOT
     1     3    50  -0.114016E+01  -0.427731E+00   0.465894E-03   0.000000E+00
     1     5    55  -0.114016E+01  -0.335449E+00   0.398576E-03   0.000000E+00
 
 
 SOLVING FOR HEAD 
                                                   Max.-Head-Change                         Max.-Flux-Residual
  Residual-Control   Outer-Iter.   Inner-Iter.     Column Row Layer    Maximum-Head-Change  Column Row Layer    Maximum-Flux-Residual          L2-NORM 
          0                 1           2             1    1     1      -0.9883158406E-02       1    1    1        -0.1405166777E-02      0.2820294619E-01
          0                 2           2             1    1     1       0.9577474931E-03       1    1    1         0.1405163426E-03      0.2739348149E-02
          0                 3           1             1    1     1      -0.8377838540E-04       1    1    1        -0.1264650806E-04      0.2494643514E-03
          0                 4           1             1    1     1       0.6541331403E-05       1    1    1         0.1012985066E-05      0.2048064900E-04
          0                 5           1             1    1     1      -0.4495332852E-06      28    4    1         0.7304845617E-07      0.1475411998E-05

    ------------------------------------------------
       NWT REQUIRED            5 OUTER ITERATIONS 
       AND A TOTAL OF          7 INNER ITERATIONS.
    ------------------------------------------------

 NO OUTPUT CONTROL FOR STRESS PERIOD   28   TIME STEP    5
 
 WELLS WITH REDUCED PUMPING FOR STRESS PERIOD    28 TIME STEP     5
   LAY   ROW   COL         APPL.Q          ACT.Q        GW-HEAD       CELL-BOT
     1     3    50  -0.114008E+01  -0.427605E+00   0.465828E-03   0.000000E+00
     1     5    55  -0.114008E+01  -0.335324E+00   0.398504E-03   0.000000E+00
 
 
 SOLVING FOR HEAD 
                                                   Max.-Head-Change                         Max.-Flux-Residual
  Residual-Control   Outer-Iter.   Inner-Iter.     Column Row Layer    Maximum-Head-Change  Column Row Layer    Maximum-Flux-Residual          L2-NORM 
          0                 1           2             1    1     1      -0.1085256193E-01       1    1    1        -0.1404889081E-02      0.2817308824E-01
          0                 2           2             1    1     1       0.1049041336E-02       1    1    1         0.1404882767E-03      0.2736375992E-02
          0                 3           1             1    1     1      -0.9155081653E-04       1    1    1        -0.1264399185E-04      0.2493763661E-03
          0                 4           1            15    7     1       0.7137202191E-05       1    7    1         0.1012783399E-05      0.2051258834E-04
          0                 5           1            15    7     1      -0.4899603199E-06      28    4    1         0.7631272858E-07      0.1481399262E-05

    ------------------------------------------------
       NWT REQUIRED            5 OUTER ITERATIONS 
       AND A TOTAL OF          7 INNER ITERATIONS.
    ------------------------------------------------

 NO OUTPUT CONTROL FOR STRESS PERIOD   28   TIME STEP    6
 
 WELLS WITH REDUCED PUMPING FOR STRESS PERIOD    28 TIME STEP     6
   LAY   ROW   COL         APPL.Q          ACT.Q        GW-HEAD       CELL-BOT
     1     3    50  -0.113993E+01  -0.427466E+00   0.465771E-03   0.000000E+00
     1     5    55  -0.113993E+01  -0.335186E+00   0.398437E-03   0.000000E+00
 
 
 SOLVING FOR HEAD 
                                                   Max.-Head-Change                         Max.-Flux-Residual
  Residual-Control   Outer-Iter.   Inner-Iter.     Column Row Layer    Maximum-Head-Change  Column Row Layer    Maximum-Flux-Residual          L2-NORM 
          0                 1           2             1    1     1      -0.1189554022E-01       1    1    1        -0.1402764000E-02      0.2814728074E-01
          0                 2           2             1    1     1       0.1147578350E-02       1    1    1         0.1402753302E-03      0.2733409537E-02
          0                 3           1            16    7     1      -0.1000812041E-03       1    1    1        -0.1262483766E-04      0.2492745211E-03
          0                 4           1            16    7     1       0.7789904166E-05       1    1    1         0.1011249019E-05      0.2054385930E-04
          0                 5           1            16    7     1      -0.5337433561E-06      28    4    1         0.7951923564E-07      0.1487525861E-05

    ------------------------------------------------
       NWT REQUIRED            5 OUTER ITERATIONS 
       AND A TOTAL OF          7 INNER ITERATIONS.
    ------------------------------------------------

 NO OUTPUT CONTROL FOR STRESS PERIOD   28   TIME STEP    7
 
 WELLS WITH REDUCED PUMPING FOR STRESS PERIOD    28 TIME STEP     7
   LAY   ROW   COL         APPL.Q          ACT.Q        GW-HEAD       CELL-BOT
     1     3    50  -0.113987E+01  -0.427314E+00   0.465685E-03   0.000000E+00
     1     5    55  -0.113987E+01  -0.335035E+00   0.398344E-03   0.000000E+00
 
 
 SOLVING FOR HEAD 
                                                   Max.-Head-Change                         Max.-Flux-Residual
  Residual-Control   Outer-Iter.   Inner-Iter.     Column Row Layer    Maximum-Head-Change  Column Row Layer    Maximum-Flux-Residual          L2-NORM 
          0                 1           2             1    1     1      -0.1305007903E-01       1    1    1        -0.1398043484E-02      0.2812425109E-01
          0                 2           2            16    7     1       0.1256406172E-02       1    1    1         0.1398033215E-03      0.2730890382E-02
          0                 3           2            17    7     1      -0.1093291349E-03       1    1    1        -0.1258236529E-04      0.2492073212E-03
          0                 4           1            17    7     1       0.8492236063E-05       1    1    1         0.1007846858E-05      0.2057935547E-04
          0                 5           1            17    7     1      -0.5806995257E-06      28    4    1         0.8267719664E-07      0.1494068583E-05

    ------------------------------------------------
       NWT REQUIRED            5 OUTER ITERATIONS 
       AND A TOTAL OF          8 INNER ITERATIONS.
    ------------------------------------------------

 NO OUTPUT CONTROL FOR STRESS PERIOD   28   TIME STEP    8
 
 WELLS WITH REDUCED PUMPING FOR STRESS PERIOD    28 TIME STEP     8
   LAY   ROW   COL         APPL.Q          ACT.Q        GW-HEAD       CELL-BOT
     1     3    50  -0.113990E+01  -0.427146E+00   0.465565E-03   0.000000E+00
     1     5    55  -0.113990E+01  -0.334869E+00   0.398220E-03   0.000000E+00
 
 
 SOLVING FOR HEAD 
                                                   Max.-Head-Change                         Max.-Flux-Residual
  Residual-Control   Outer-Iter.   Inner-Iter.     Column Row Layer    Maximum-Head-Change  Column Row Layer    Maximum-Flux-Residual          L2-NORM 
          0                 1           2             2    1     1      -0.1433427029E-01       1    1    1        -0.1394606227E-02      0.2810073559E-01
          0                 2           2             2    1     1       0.1376305388E-02       1    1    1         0.1394597056E-03      0.2728531986E-02
          0                 3           2            17    7     1      -0.1193314784E-03       1    1    1        -0.1255144878E-04      0.2491671849E-03
          0                 4           1            17    7     1       0.9246931050E-05       1    1    1         0.1005370308E-05      0.2061694196E-04
          0                 5           1            17    7     1      -0.6308219106E-06      28    4    1         0.8577797850E-07      0.1500891889E-05

    ------------------------------------------------
       NWT REQUIRED            5 OUTER ITERATIONS 
       AND A TOTAL OF          8 INNER ITERATIONS.
    ------------------------------------------------

 NO OUTPUT CONTROL FOR STRESS PERIOD   28   TIME STEP    9
 
 WELLS WITH REDUCED PUMPING FOR STRESS PERIOD    28 TIME STEP     9
   LAY   ROW   COL         APPL.Q          ACT.Q        GW-HEAD       CELL-BOT
     1     3    50  -0.113995E+01  -0.426961E+00   0.465426E-03   0.000000E+00
     1     5    55  -0.113995E+01  -0.334686E+00   0.398080E-03   0.000000E+00
 
 
 SOLVING FOR HEAD 
                                                   Max.-Head-Change                         Max.-Flux-Residual
  Residual-Control   Outer-Iter.   Inner-Iter.     Column Row Layer    Maximum-Head-Change  Column Row Layer    Maximum-Flux-Residual          L2-NORM 
          0                 1           2             3    1     1      -0.1575605008E-01       2    1    1        -0.1392866703E-02      0.2807623577E-01
          0                 2           2             3    1     1       0.1509458167E-02       2    1    1         0.1392857971E-03      0.2726100778E-02
          0                 3           2             4    1     1      -0.1304954519E-03       2    1    1        -0.1253580795E-04      0.2491154163E-03
          0                 4           1             4    1     1       0.1006938822E-04       2    1    1         0.1004117326E-05      0.2065364072E-04
          0                 5           1            16    7     1      -0.6847171579E-06      28    4    1         0.8881134583E-07      0.1507738469E-05

    ------------------------------------------------
       NWT REQUIRED            5 OUTER ITERATIONS 
       AND A TOTAL OF          8 INNER ITERATIONS.
    ------------------------------------------------

 NO OUTPUT CONTROL FOR STRESS PERIOD   28   TIME STEP   10
 
 WELLS WITH REDUCED PUMPING FOR STRESS PERIOD    28 TIME STEP    10
   LAY   ROW   COL         APPL.Q          ACT.Q        GW-HEAD       CELL-BOT
     1     3    50  -0.113990E+01  -0.426757E+00   0.465301E-03   0.000000E+00
     1     5    55  -0.113990E+01  -0.334484E+00   0.397947E-03   0.000000E+00
 
 
 SOLVING FOR HEAD 
                                                   Max.-Head-Change                         Max.-Flux-Residual
  Residual-Control   Outer-Iter.   Inner-Iter.     Column Row Layer    Maximum-Head-Change  Column Row Layer    Maximum-Flux-Residual          L2-NORM 
          0                 1           2             3    1     1      -0.1732228194E-01       3    1    1        -0.1392110868E-02      0.2804984202E-01
          0                 2           2             4    1     1       0.1655865146E-02       3    1    1         0.1392101496E-03      0.2723553932E-02
          0                 3           2             4    1     1      -0.1428035967E-03       3    1    1        -0.1252901319E-04      0.2490519864E-03
          0                 4           1             7    7     1       0.1099042765E-04       3    1    1         0.1003572866E-05      0.2068926062E-04
          0                 5           1            13    7     1      -0.7445031062E-06      28    4    1         0.9172302207E-07      0.1514540288E-05

    ------------------------------------------------
       NWT REQUIRED            5 OUTER ITERATIONS 
       AND A TOTAL OF          8 INNER ITERATIONS.
    ------------------------------------------------

 NO OUTPUT CONTROL FOR STRESS PERIOD   28   TIME STEP   11
 
 WELLS WITH REDUCED PUMPING FOR STRESS PERIOD    28 TIME STEP    11
   LAY   ROW   COL         APPL.Q          ACT.Q        GW-HEAD       CELL-BOT
     1     3    50  -0.114004E+01  -0.426532E+00   0.465116E-03   0.000000E+00
     1     5    55  -0.114004E+01  -0.334253E+00   0.397757E-03   0.000000E+00
 
 
 SOLVING FOR HEAD 
                                                   Max.-Head-Change                         Max.-Flux-Residual
  Residual-Control   Outer-Iter.   Inner-Iter.     Column Row Layer    Maximum-Head-Change  Column Row Layer    Maximum-Flux-Residual          L2-NORM 
          0                 1           2             4    1     1      -0.1904555370E-01       3    1    1        -0.1391630474E-02      0.2802274075E-01
          0                 2           2             4    1     1       0.1816593380E-02       3    1    1         0.1391619835E-03      0.2720811685E-02
          0                 3           2             5    1     1      -0.1562804943E-03       3    1    1        -0.1252469405E-04      0.2488998075E-03
          0                 4           1             7    7     1       0.1199533237E-04       3    7    1         0.1003226674E-05      0.2071223744E-04
          0                 5           1            11    7     1      -0.8099868946E-06      29    4    1         0.9263547263E-07      0.1520242794E-05

    ------------------------------------------------
       NWT REQUIRED            5 OUTER ITERATIONS 
       AND A TOTAL OF          8 INNER ITERATIONS.
    ------------------------------------------------

 NO OUTPUT CONTROL FOR STRESS PERIOD   28   TIME STEP   12
 
 WELLS WITH REDUCED PUMPING FOR STRESS PERIOD    28 TIME STEP    12
   LAY   ROW   COL         APPL.Q          ACT.Q        GW-HEAD       CELL-BOT
     1     3    50  -0.114006E+01  -0.426274E+00   0.464936E-03   0.000000E+00
     1     5    55  -0.114006E+01  -0.334002E+00   0.397575E-03   0.000000E+00
 
 
 SOLVING FOR HEAD 
                                                   Max.-Head-Change                         Max.-Flux-Residual
  Residual-Control   Outer-Iter.   Inner-Iter.     Column Row Layer    Maximum-Head-Change  Column Row Layer    Maximum-Flux-Residual          L2-NORM 
          0                 1           2             3    1     1      -0.2094061654E-01       3    1    1        -0.1391242432E-02      0.2799340874E-01
          0                 2           2             4    1     1       0.1992991824E-02       3    1    1         0.1391230225E-03      0.2717926344E-02
          0                 3           2             5    1     1      -0.1710335616E-03       3    1    1        -0.1252120557E-04      0.2487785862E-03
          0                 4           1             7    7     1       0.1309155302E-04      29    4    1        -0.1024505863E-05      0.2074026654E-04
          0                 5           1            11    7     1      -0.8810384369E-06      29    4    1         0.9581669502E-07      0.1526350690E-05

    ------------------------------------------------
       NWT REQUIRED            5 OUTER ITERATIONS 
       AND A TOTAL OF          8 INNER ITERATIONS.
    ------------------------------------------------

 NO OUTPUT CONTROL FOR STRESS PERIOD   28   TIME STEP   13
 
 WELLS WITH REDUCED PUMPING FOR STRESS PERIOD    28 TIME STEP    13
   LAY   ROW   COL         APPL.Q          ACT.Q        GW-HEAD       CELL-BOT
     1     3    50  -0.114006E+01  -0.425999E+00   0.464751E-03   0.000000E+00
     1     5    55  -0.114006E+01  -0.333731E+00   0.397384E-03   0.000000E+00
 
 
 SOLVING FOR HEAD 
                                                   Max.-Head-Change                         Max.-Flux-Residual
  Residual-Control   Outer-Iter.   Inner-Iter.     Column Row Layer    Maximum-Head-Change  Column Row Layer    Maximum-Flux-Residual          L2-NORM 
          0                 1           2             3    1     1      -0.2302428125E-01       3    1    1        -0.1390880554E-02      0.2795974636E-01
          0                 2           2             4    1     1       0.2186584390E-02       3    1    1         0.1390866509E-03      0.2714857583E-02
          0                 3           2             5    1     1      -0.1871853463E-03       3    1    1        -0.1251795250E-04      0.2486629622E-03
          0                 4           1             7    7     1       0.1428773482E-04      29    4    1        -0.1046061946E-05      0.2077064276E-04
          0                 5           1             4    1     1      -0.9582797233E-06      29    4    1         0.9848003479E-07      0.1532631540E-05

    ------------------------------------------------
       NWT REQUIRED            5 OUTER ITERATIONS 
       AND A TOTAL OF          8 INNER ITERATIONS.
    ------------------------------------------------

 NO OUTPUT CONTROL FOR STRESS PERIOD   28   TIME STEP   14
 
 WELLS WITH REDUCED PUMPING FOR STRESS PERIOD    28 TIME STEP    14
   LAY   ROW   COL         APPL.Q          ACT.Q        GW-HEAD       CELL-BOT
     1     3    50  -0.114002E+01  -0.425702E+00   0.464559E-03   0.000000E+00
     1     5    55  -0.114002E+01  -0.333436E+00   0.397183E-03   0.000000E+00
 
 
 SOLVING FOR HEAD 
                                                   Max.-Head-Change                         Max.-Flux-Residual
  Residual-Control   Outer-Iter.   Inner-Iter.     Column Row Layer    Maximum-Head-Change  Column Row Layer    Maximum-Flux-Residual          L2-NORM 
          0                 1           2             3    1     1      -0.2531498339E-01       3    1    1        -0.1390512577E-02      0.2792367182E-01
          0                 2           2             4    1     1       0.2399059217E-02       3    1    1         0.1390496429E-03      0.2711234768E-02
          0                 3           2             5    1     1      -0.2048727584E-03       3    1    1        -0.1251464474E-04      0.2484433015E-03
          0                 4           1             7    7     1       0.1559346340E-04      29    4    1        -0.1066547375E-05      0.2078872650E-04
          0                 5           1             4    1     1      -0.1042123364E-05      29    4    1         0.1010144643E-06      0.1537772833E-05
          0                 6           1            15    7     1       0.6016760582E-07      29    4    1        -0.7358314846E-08      0.9789668611E-07

    ------------------------------------------------
       NWT REQUIRED            6 OUTER ITERATIONS 
       AND A TOTAL OF          9 INNER ITERATIONS.
    ------------------------------------------------

 NO OUTPUT CONTROL FOR STRESS PERIOD   28   TIME STEP   15
 
 WELLS WITH REDUCED PUMPING FOR STRESS PERIOD    28 TIME STEP    15
   LAY   ROW   COL         APPL.Q          ACT.Q        GW-HEAD       CELL-BOT
     1     3    50  -0.114002E+01  -0.425378E+00   0.464341E-03   0.000000E+00
     1     5    55  -0.114002E+01  -0.333115E+00   0.396956E-03   0.000000E+00
 
 
 SOLVING FOR HEAD 
                                                   Max.-Head-Change                         Max.-Flux-Residual
  Residual-Control   Outer-Iter.   Inner-Iter.     Column Row Layer    Maximum-Head-Change  Column Row Layer    Maximum-Flux-Residual          L2-NORM 
          0                 1           2             3    1     1      -0.2783310119E-01       3    7    1        -0.1390122995E-02      0.2788597526E-01
          0                 2           2             4    1     1       0.2632278368E-02       3    7    1         0.1390104466E-03      0.2707474863E-02
          0                 3           2             5    1     1      -0.2242470719E-03       3    7    1        -0.1251114283E-04      0.2482105229E-03
          0                 4           1             5    1     1       0.1701954371E-04      29    4    1        -0.1085847437E-05      0.2080383505E-04
          0                 5           1             4    1     1      -0.1133093367E-05      29    4    1         0.1034055739E-06      0.1542350347E-05
          0                 6           1             4    1     1       0.6513287214E-07      29    4    1        -0.7574689320E-08      0.9846984725E-07

    ------------------------------------------------
       NWT REQUIRED            6 OUTER ITERATIONS 
       AND A TOTAL OF          9 INNER ITERATIONS.
    ------------------------------------------------

 NO OUTPUT CONTROL FOR STRESS PERIOD   28   TIME STEP   16
 
 WELLS WITH REDUCED PUMPING FOR STRESS PERIOD    28 TIME STEP    16
   LAY   ROW   COL         APPL.Q          ACT.Q        GW-HEAD       CELL-BOT
     1     3    50  -0.114002E+01  -0.425024E+00   0.464102E-03   0.000000E+00
     1     5    55  -0.114002E+01  -0.332764E+00   0.396708E-03   0.000000E+00
 
 
 SOLVING FOR HEAD 
                                                   Max.-Head-Change                         Max.-Flux-Residual
  Residual-Control   Outer-Iter.   Inner-Iter.     Column Row Layer    Maximum-Head-Change  Column Row Layer    Maximum-Flux-Residual          L2-NORM 
          0                 1           2             2    1     1      -0.3060143485E-01       2    7    1        -0.1389702530E-02      0.2784464615E-01
          0                 2           2             3    1     1       0.2888318201E-02       2    1    1         0.1389680966E-03      0.2703530160E-02
          0                 3           2             4    1     1      -0.2454751940E-03       2    1    1        -0.1250735373E-04      0.2479674539E-03
          0                 4           1             4    1     1       0.1857803775E-04      29    4    1        -0.1103749543E-05      0.2081825924E-04
          0                 5           1             4    1     1      -0.1231737237E-05      29    4    1         0.1056259098E-06      0.1546569108E-05
          0                 6           1             1    1     1       0.7047872405E-07      29    4    1        -0.7776367994E-08      0.9899964419E-07

    ------------------------------------------------
       NWT REQUIRED            6 OUTER ITERATIONS 
       AND A TOTAL OF          9 INNER ITERATIONS.
    ------------------------------------------------

 NO OUTPUT CONTROL FOR STRESS PERIOD   28   TIME STEP   17
 
 WELLS WITH REDUCED PUMPING FOR STRESS PERIOD    28 TIME STEP    17
   LAY   ROW   COL         APPL.Q          ACT.Q        GW-HEAD       CELL-BOT
     1     3    50  -0.114005E+01  -0.424636E+00   0.463834E-03   0.000000E+00
     1     5    55  -0.114005E+01  -0.332381E+00   0.396432E-03   0.000000E+00
 
 
 SOLVING FOR HEAD 
                                                   Max.-Head-Change                         Max.-Flux-Residual
  Residual-Control   Outer-Iter.   Inner-Iter.     Column Row Layer    Maximum-Head-Change  Column Row Layer    Maximum-Flux-Residual          L2-NORM 
          0                 1           2             1    1     1      -0.3364446387E-01       1    7    1        -0.1389262815E-02      0.2779963576E-01
          0                 2           2             3    1     1       0.3169409189E-02       1    7    1         0.1389238726E-03      0.2699142302E-02
          0                 3           2             4    1     1      -0.2687424690E-03       1    7    1        -0.1250341201E-04      0.2476903581E-03
          0                 4           1             4    1     1       0.2028183023E-04      29    4    1        -0.1119543267E-05      0.2083058730E-04
          0                 5           1             4    1     1      -0.1338585296E-05      29    4    1         0.1075966924E-06      0.1550332074E-05
          0                 6           1             1    1     1       0.7621088183E-07      29    4    1        -0.7956392878E-08      0.9948111690E-07

    ------------------------------------------------
       NWT REQUIRED            6 OUTER ITERATIONS 
       AND A TOTAL OF          9 INNER ITERATIONS.
    ------------------------------------------------

 NO OUTPUT CONTROL FOR STRESS PERIOD   28   TIME STEP   18
 
 WELLS WITH REDUCED PUMPING FOR STRESS PERIOD    28 TIME STEP    18
   LAY   ROW   COL         APPL.Q          ACT.Q        GW-HEAD       CELL-BOT
     1     3    50  -0.114004E+01  -0.424212E+00   0.463550E-03   0.000000E+00
     1     5    55  -0.114004E+01  -0.331961E+00   0.396138E-03   0.000000E+00
 
 
 SOLVING FOR HEAD 
                                                   Max.-Head-Change                         Max.-Flux-Residual
  Residual-Control   Outer-Iter.   Inner-Iter.     Column Row Layer    Maximum-Head-Change  Column Row Layer    Maximum-Flux-Residual          L2-NORM 
          0                 1           2             1    1     1      -0.3698889115E-01       1    7    1        -0.1388786048E-02      0.2775320954E-01
          0                 2           2             2    1     1       0.3478043337E-02       1    7    1         0.1388758597E-03      0.2694346013E-02
          0                 3           2             4    1     1      -0.2942486071E-03       1    7    1        -0.1249912673E-04      0.2473136351E-03
          0                 4           1             4    1     1       0.2214477994E-04      30    4    1        -0.1115386691E-05      0.2082878794E-04
          0                 5           1             4    1     1      -0.1454134708E-05      30    4    1         0.1080323671E-06      0.1552292408E-05
          0                 6           1             1    1     1       0.8233040590E-07      30    4    1        -0.8042825073E-08      0.9981113188E-07

    ------------------------------------------------
       NWT REQUIRED            6 OUTER ITERATIONS 
       AND A TOTAL OF          9 INNER ITERATIONS.
    ------------------------------------------------

 NO OUTPUT CONTROL FOR STRESS PERIOD   28   TIME STEP   19
 
 WELLS WITH REDUCED PUMPING FOR STRESS PERIOD    28 TIME STEP    19
   LAY   ROW   COL         APPL.Q          ACT.Q        GW-HEAD       CELL-BOT
     1     3    50  -0.113998E+01  -0.423748E+00   0.463253E-03   0.000000E+00
     1     5    55  -0.113998E+01  -0.331501E+00   0.395825E-03   0.000000E+00
 
 
 SOLVING FOR HEAD 
                                                   Max.-Head-Change                         Max.-Flux-Residual
  Residual-Control   Outer-Iter.   Inner-Iter.     Column Row Layer    Maximum-Head-Change  Column Row Layer    Maximum-Flux-Residual          L2-NORM 
          0                 1           2             1    1     1      -0.4066428103E-01       1    7    1        -0.1388253637E-02      0.2770170911E-01
          0                 2           2             1    1     1       0.3816923249E-02       1    7    1         0.1388222438E-03      0.2689493436E-02
          0                 3           2             3    1     1      -0.3222158089E-03       1    7    1        -0.1249434124E-04      0.2469760186E-03
          0                 4           1             4    1     1       0.2418224491E-04      30    4    1        -0.1166685237E-05      0.2083022003E-04
          0                 5           1             4    1     1      -0.1578779591E-05      30    4    1         0.1129746021E-06      0.1553680066E-05
          0                 6           1             1    1     1       0.8882846939E-07      30    4    1        -0.8424555276E-08      0.1000484802E-06

    ------------------------------------------------
       NWT REQUIRED            6 OUTER ITERATIONS 
       AND A TOTAL OF          9 INNER ITERATIONS.
    ------------------------------------------------

 NO OUTPUT CONTROL FOR STRESS PERIOD   28   TIME STEP   20
 
 WELLS WITH REDUCED PUMPING FOR STRESS PERIOD    28 TIME STEP    20
   LAY   ROW   COL         APPL.Q          ACT.Q        GW-HEAD       CELL-BOT
     1     3    50  -0.113997E+01  -0.423238E+00   0.462911E-03   0.000000E+00
     1     5    55  -0.113997E+01  -0.330996E+00   0.395470E-03   0.000000E+00
 
 
 SOLVING FOR HEAD 
                                                   Max.-Head-Change                         Max.-Flux-Residual
  Residual-Control   Outer-Iter.   Inner-Iter.     Column Row Layer    Maximum-Head-Change  Column Row Layer    Maximum-Flux-Residual          L2-NORM 
          0                 1           2             1    1     1      -0.4470306153E-01       1    7    1        -0.1387660704E-02      0.2764423553E-01
          0                 2           2             1    1     1       0.4188994789E-02       1    1    1         0.1387625333E-03      0.2684182383E-02
          0                 3           2             3    1     1      -0.3528881814E-03       1    7    1        -0.1248901166E-04      0.2465921816E-03
          0                 4           1             4    1     1       0.2641093807E-04      30    4    1        -0.1207350131E-05      0.2082690634E-04
          0                 5           1             1    1     1      -0.1712986060E-05      30    4    1         0.1163167127E-06      0.1553807559E-05
          0                 6           1             1    1     1       0.9567727740E-07      30    4    1        -0.8665807627E-08      0.1001465956E-06

    ------------------------------------------------
       NWT REQUIRED            6 OUTER ITERATIONS 
       AND A TOTAL OF          9 INNER ITERATIONS.
    ------------------------------------------------

 NO OUTPUT CONTROL FOR STRESS PERIOD   28   TIME STEP   21
 
 WELLS WITH REDUCED PUMPING FOR STRESS PERIOD    28 TIME STEP    21
   LAY   ROW   COL         APPL.Q          ACT.Q        GW-HEAD       CELL-BOT
     1     3    50  -0.114000E+01  -0.422668E+00   0.462517E-03   0.000000E+00
     1     5    55  -0.114000E+01  -0.330427E+00   0.395060E-03   0.000000E+00
 
 
 SOLVING FOR HEAD 
                                                   Max.-Head-Change                         Max.-Flux-Residual
  Residual-Control   Outer-Iter.   Inner-Iter.     Column Row Layer    Maximum-Head-Change  Column Row Layer    Maximum-Flux-Residual          L2-NORM 
          0                 1           2             1    1     1      -0.4914075094E-01       1    7    1        -0.1387001641E-02      0.2758240962E-01
          0                 2           2             1    1     1       0.4597503668E-02       1    1    1         0.1386961629E-03      0.2678051184E-02
          0                 3           2             3    1     1      -0.3865294060E-03       1    7    1        -0.1248308753E-04      0.2460806966E-03
          0                 4           1             4    1     1       0.2884896951E-04      31    4    1        -0.1185724962E-05      0.2080889053E-04
          0                 5           1             1    1     1      -0.1856776136E-05      30    4    1         0.1158017806E-06      0.1551740372E-05
          0                 6           1             1    1     1       0.1028202096E-06      30    4    1        -0.8705685062E-08      0.1000441892E-06

    ------------------------------------------------
       NWT REQUIRED            6 OUTER ITERATIONS 
       AND A TOTAL OF          9 INNER ITERATIONS.
    ------------------------------------------------

 NO OUTPUT CONTROL FOR STRESS PERIOD   28   TIME STEP   22
 
 WELLS WITH REDUCED PUMPING FOR STRESS PERIOD    28 TIME STEP    22
   LAY   ROW   COL         APPL.Q          ACT.Q        GW-HEAD       CELL-BOT
     1     3    50  -0.113999E+01  -0.422048E+00   0.462100E-03   0.000000E+00
     1     5    55  -0.113999E+01  -0.329816E+00   0.394629E-03   0.000000E+00
 
 
 SOLVING FOR HEAD 
                                                   Max.-Head-Change                         Max.-Flux-Residual
  Residual-Control   Outer-Iter.   Inner-Iter.     Column Row Layer    Maximum-Head-Change  Column Row Layer    Maximum-Flux-Residual          L2-NORM 
          0                 1           2             1    1     1      -0.5401623186E-01       1    7    1        -0.1386270048E-02      0.2751482938E-01
          0                 2           2             1    1     1       0.5046002721E-02       1    1    1         0.1386224877E-03      0.2671573773E-02
          0                 3           2             3    1     1      -0.4234306132E-03       3    2    1        -0.1247661015E-04      0.2455231688E-03
          0                 4           1             3    1     1       0.3151589404E-04      31    4    1        -0.1174471658E-05      0.2078231266E-04
          0                 5           1             1    1     1      -0.2009853684E-05      32    4    1         0.1134889906E-06      0.1547415451E-05
          0                 6           1             1    1     1       0.1101639790E-06      32    4    1        -0.8496851223E-08      0.9970505446E-07

    ------------------------------------------------
       NWT REQUIRED            6 OUTER ITERATIONS 
       AND A TOTAL OF          9 INNER ITERATIONS.
    ------------------------------------------------

 NO OUTPUT CONTROL FOR STRESS PERIOD   28   TIME STEP   23
 
 WELLS WITH REDUCED PUMPING FOR STRESS PERIOD    28 TIME STEP    23
   LAY   ROW   COL         APPL.Q          ACT.Q        GW-HEAD       CELL-BOT
     1     3    50  -0.114002E+01  -0.421379E+00   0.461641E-03   0.000000E+00
     1     5    55  -0.114002E+01  -0.329155E+00   0.394155E-03   0.000000E+00
 
 
 SOLVING FOR HEAD 
                                                   Max.-Head-Change                         Max.-Flux-Residual
  Residual-Control   Outer-Iter.   Inner-Iter.     Column Row Layer    Maximum-Head-Change  Column Row Layer    Maximum-Flux-Residual          L2-NORM 
          0                 1           3             1    1     1      -0.5937225996E-01       1    7    1        -0.1385458668E-02      0.2744267163E-01
          0                 2           2             1    1     1       0.5538599403E-02       1    7    1         0.1385407796E-03      0.2664489920E-02
          0                 3           2             3    1     1      -0.4639129147E-03       1    7    1        -0.1246921761E-04      0.2449077626E-03
          0                 4           1             3    1     1       0.3443354934E-04      31    4    1        -0.1189121924E-05      0.2075012671E-04
          0                 5           1             1    1     1      -0.2171590836E-05      31    4    1         0.1138331722E-06      0.1541043688E-05
          0                 6           1             1    1     1       0.1175709553E-06      32    4    1        -0.8577009325E-08      0.9914045620E-07

    ------------------------------------------------
       NWT REQUIRED            6 OUTER ITERATIONS 
       AND A TOTAL OF         10 INNER ITERATIONS.
    ------------------------------------------------

 NO OUTPUT CONTROL FOR STRESS PERIOD   28   TIME STEP   24
 
 WELLS WITH REDUCED PUMPING FOR STRESS PERIOD    28 TIME STEP    24
   LAY   ROW   COL         APPL.Q          ACT.Q        GW-HEAD       CELL-BOT
     1     3    50  -0.113999E+01  -0.420653E+00   0.461157E-03   0.000000E+00
     1     5    55  -0.113999E+01  -0.328435E+00   0.393650E-03   0.000000E+00
 
 
 SOLVING FOR HEAD 
                                                   Max.-Head-Change                         Max.-Flux-Residual
  Residual-Control   Outer-Iter.   Inner-Iter.     Column Row Layer    Maximum-Head-Change  Column Row Layer    Maximum-Flux-Residual          L2-NORM 
          0                 1           3             1    1     1      -0.6525510373E-01       1    7    1        -0.1384559302E-02      0.2736301054E-01
          0                 2           2             1    1     1       0.6079265383E-02       1    7    1         0.1384502084E-03      0.2656938207E-02
          0                 3           2             3    1     1      -0.5083211580E-03       3    2    1        -0.1246122763E-04      0.2443003564E-03
          0                 4           1             3    1     1       0.3762413418E-04      31    4    1        -0.1197762410E-05      0.2072316420E-04
          0                 5           1             1    1     1      -0.2342656185E-05      32    4    1         0.1151389490E-06      0.1534230707E-05
          0                 6           1             1    1     1       0.1250682016E-06      74    4    1        -0.8695920428E-08      0.9850899617E-07

    ------------------------------------------------
       NWT REQUIRED            6 OUTER ITERATIONS 
       AND A TOTAL OF         10 INNER ITERATIONS.
    ------------------------------------------------

 NO OUTPUT CONTROL FOR STRESS PERIOD   28   TIME STEP   25
 
 WELLS WITH REDUCED PUMPING FOR STRESS PERIOD    28 TIME STEP    25
   LAY   ROW   COL         APPL.Q          ACT.Q        GW-HEAD       CELL-BOT
     1     3    50  -0.114001E+01  -0.419862E+00   0.460617E-03   0.000000E+00
     1     5    55  -0.114001E+01  -0.327652E+00   0.393091E-03   0.000000E+00
 
 
 SOLVING FOR HEAD 
                                                   Max.-Head-Change                         Max.-Flux-Residual
  Residual-Control   Outer-Iter.   Inner-Iter.     Column Row Layer    Maximum-Head-Change  Column Row Layer    Maximum-Flux-Residual          L2-NORM 
          0                 1           3             1    1     1      -0.7171574201E-01       1    7    1        -0.1383562713E-02      0.2727904659E-01
          0                 2           2             1    1     1       0.6672778689E-02       1    7    1         0.1383498455E-03      0.2648471516E-02
          0                 3           2             3    1     1      -0.5570371798E-03       4    3    1        -0.1245414555E-04      0.2435050579E-03
          0                 4           1             3    1     1       0.4111008209E-04      31    4    1        -0.1206094094E-05      0.2067232495E-04
          0                 5           1             1    1     1      -0.2517328756E-05      32    4    1         0.1163624965E-06      0.1522749712E-05
          0                 6           1            75    7     1       0.1331306209E-06      32    4    1        -0.8805168150E-08      0.9745436299E-07

    ------------------------------------------------
       NWT REQUIRED            6 OUTER ITERATIONS 
       AND A TOTAL OF         10 INNER ITERATIONS.
    ------------------------------------------------

 NO OUTPUT CONTROL FOR STRESS PERIOD   28   TIME STEP   26
 
 WELLS WITH REDUCED PUMPING FOR STRESS PERIOD    28 TIME STEP    26
   LAY   ROW   COL         APPL.Q          ACT.Q        GW-HEAD       CELL-BOT
     1     3    50  -0.114001E+01  -0.418995E+00   0.460033E-03   0.000000E+00
     1     5    55  -0.114001E+01  -0.326800E+00   0.392487E-03   0.000000E+00
 
 
 SOLVING FOR HEAD 
                                                   Max.-Head-Change                         Max.-Flux-Residual
  Residual-Control   Outer-Iter.   Inner-Iter.     Column Row Layer    Maximum-Head-Change  Column Row Layer    Maximum-Flux-Residual          L2-NORM 
          0                 1           3             1    1     1      -0.7880971586E-01       1    7    1        -0.1382458510E-02      0.2719019482E-01
          0                 2           2             1    1     1       0.7324229083E-02       1    7    1         0.1382386441E-03      0.2639828552E-02
          0                 3           2             3    1     1      -0.6104744819E-03       4    3    1        -0.1244733081E-04      0.2427149021E-03
          0                 4           1             3    1     1       0.4491726557E-04      32    4    1        -0.1192535027E-05      0.2061792559E-04
          0                 5           1             1    1     1      -0.2694042856E-05      32    4    1         0.1183303766E-06      0.1508352843E-05
          0                 6           1            75    7     1       0.1429928536E-06      32    4    1        -0.8972321552E-08      0.9611582462E-07

    ------------------------------------------------
       NWT REQUIRED            6 OUTER ITERATIONS 
       AND A TOTAL OF         10 INNER ITERATIONS.
    ------------------------------------------------

 NO OUTPUT CONTROL FOR STRESS PERIOD   28   TIME STEP   27
 
 WELLS WITH REDUCED PUMPING FOR STRESS PERIOD    28 TIME STEP    27
   LAY   ROW   COL         APPL.Q          ACT.Q        GW-HEAD       CELL-BOT
     1     3    50  -0.114000E+01  -0.418051E+00   0.459395E-03   0.000000E+00
     1     5    55  -0.114000E+01  -0.325865E+00   0.391825E-03   0.000000E+00
 
 
 SOLVING FOR HEAD 
                                                   Max.-Head-Change                         Max.-Flux-Residual
  Residual-Control   Outer-Iter.   Inner-Iter.     Column Row Layer    Maximum-Head-Change  Column Row Layer    Maximum-Flux-Residual          L2-NORM 
          0                 1           3             1    1     1      -0.8659761560E-01       1    7    1        -0.1381235007E-02      0.2707864454E-01
          0                 2           2             1    1     1       0.8039163685E-02       1    7    1         0.1381154272E-03      0.2630750357E-02
          0                 3           2             3    1     1      -0.6690817168E-03       4    3    1        -0.1244114937E-04      0.2420295571E-03
          0                 4           1             3    1     1       0.4907029939E-04      32    4    1        -0.1201010534E-05      0.2057947901E-04
          0                 5           1             1    1     1      -0.2867460217E-05      32    4    1         0.1197362405E-06      0.1492761814E-05
          0                 6           1            75    7     1       0.1520901739E-06      32    4    1        -0.9092220310E-08      0.9466236167E-07

    ------------------------------------------------
       NWT REQUIRED            6 OUTER ITERATIONS 
       AND A TOTAL OF         10 INNER ITERATIONS.
    ------------------------------------------------

 NO OUTPUT CONTROL FOR STRESS PERIOD   28   TIME STEP   28
 
 WELLS WITH REDUCED PUMPING FOR STRESS PERIOD    28 TIME STEP    28
   LAY   ROW   COL         APPL.Q          ACT.Q        GW-HEAD       CELL-BOT
     1     3    50  -0.113998E+01  -0.417028E+00   0.458708E-03   0.000000E+00
     1     5    55  -0.113998E+01  -0.324853E+00   0.391109E-03   0.000000E+00
 
 
 SOLVING FOR HEAD 
                                                   Max.-Head-Change                         Max.-Flux-Residual
  Residual-Control   Outer-Iter.   Inner-Iter.     Column Row Layer    Maximum-Head-Change  Column Row Layer    Maximum-Flux-Residual          L2-NORM 
          0                 1           3             1    1     1      -0.9297490473E-01       1    7    1        -0.1379879073E-02      0.2680744013E-01
          0                 2           2             1    1     1       0.8575420579E-02       1    7    1         0.1379459462E-03      0.2616488842E-02
          0                 3           2            21    7     1      -0.7120999240E-03       4    3    1        -0.1243192315E-04      0.2421684110E-03
          0                 4           1            21    7     1       0.5197486657E-04      33    4    1        -0.1180556859E-05      0.2071287726E-04
          0                 5           1            75    7     1      -0.3021311281E-05       9    4    1         0.1195349491E-06      0.1493807142E-05
          0                 6           1            75    7     1       0.1620439237E-06      72    4    1        -0.8985866273E-08      0.9450098417E-07

    ------------------------------------------------
       NWT REQUIRED            6 OUTER ITERATIONS 
       AND A TOTAL OF         10 INNER ITERATIONS.
    ------------------------------------------------

 NO OUTPUT CONTROL FOR STRESS PERIOD   28   TIME STEP   29
 
 WELLS WITH REDUCED PUMPING FOR STRESS PERIOD    28 TIME STEP    29
   LAY   ROW   COL         APPL.Q          ACT.Q        GW-HEAD       CELL-BOT
     1     3    50  -0.114001E+01  -0.415920E+00   0.457950E-03   0.000000E+00
     1     5    55  -0.114001E+01  -0.323757E+00   0.390323E-03   0.000000E+00
 
 
 SOLVING FOR HEAD 
                                                   Max.-Head-Change                         Max.-Flux-Residual
  Residual-Control   Outer-Iter.   Inner-Iter.     Column Row Layer    Maximum-Head-Change  Column Row Layer    Maximum-Flux-Residual          L2-NORM 
          0                 1           3             3    1     1      -0.1011270518E+00       1    7    1        -0.1347563936E-02      0.2647231308E-01
          0                 2           3             3    1     1       0.9311475956E-02       1    7    1         0.1347305049E-03      0.2579969264E-02
          0                 3           2             3    1     1      -0.7682112234E-03       1    7    1        -0.1212696191E-04      0.2388190850E-03
          0                 4           1             3    1     1       0.5555674884E-04      33    4    1        -0.1189275350E-05      0.2045139560E-04
          0                 5           1            75    7     1      -0.3244114467E-05      72    4    1         0.1182275149E-06      0.1458653550E-05
          0                 6           1            75    7     1       0.1715808545E-06      72    4    1        -0.9092509856E-08      0.9196984546E-07

    ------------------------------------------------
       NWT REQUIRED            6 OUTER ITERATIONS 
       AND A TOTAL OF         11 INNER ITERATIONS.
    ------------------------------------------------

 NO OUTPUT CONTROL FOR STRESS PERIOD   28   TIME STEP   30
 
 WELLS WITH REDUCED PUMPING FOR STRESS PERIOD    28 TIME STEP    30
   LAY   ROW   COL         APPL.Q          ACT.Q        GW-HEAD       CELL-BOT
     1     3    50  -0.113999E+01  -0.414719E+00   0.457140E-03   0.000000E+00
     1     5    55  -0.113999E+01  -0.322572E+00   0.389483E-03   0.000000E+00
 



 STREAM LISTING     PERIOD     28   STEP       30

 LAYER ROW COL. STREAM  RCH.   FLOW INTO    STREAM     FLOW OUT OF   OVRLND.    DIRECT     STREAM      STREAM      STREAM     STREAM  STREAMBED   FLOW TO   CHNG. UNSAT. 
                SEG.NO.  NO.   STRM. RCH.    LOSS       STRM. RCH.   RUNOFF     PRECIP       ET         HEAD        DEPTH      WIDTH  CONDCTNC.   WAT. TAB.

   1    4    1     1     1    1.7300E+00  8.1341E-04   1.7292E+00  0.000E+00  0.000E+00  0.000E+00  1.40825E+02  9.745E-01  2.978E+00  5.516E-04  7.865E-04  2.690E-05
   1    4    2     1     2    1.7292E+00  8.1317E-04   1.7284E+00  0.000E+00  0.000E+00  0.000E+00  1.40524E+02  9.743E-01  2.978E+00  5.516E-04  7.862E-04  2.699E-05
   1    4    3     1     3    1.7284E+00  8.1293E-04   1.7276E+00  0.000E+00  0.000E+00  0.000E+00  1.40224E+02  9.741E-01  2.978E+00  5.515E-04  7.859E-04  2.707E-05
   1    4    4     1     4    1.7276E+00  8.1269E-04   1.7267E+00  0.000E+00  0.000E+00  0.000E+00  1.39924E+02  9.738E-01  2.978E+00  5.514E-04  7.856E-04  2.713E-05
   1    4    5     1     5    1.7267E+00  8.1245E-04   1.7259E+00  0.000E+00  0.000E+00  0.000E+00  1.39624E+02  9.736E-01  2.977E+00  5.513E-04  7.853E-04  2.718E-05
   1    4    6     1     6    1.7259E+00  8.1221E-04   1.7251E+00  0.000E+00  0.000E+00  0.000E+00  1.39323E+02  9.734E-01  2.977E+00  5.513E-04  7.850E-04  2.721E-05
   1    4    7     1     7    1.7251E+00  8.1197E-04   1.7243E+00  0.000E+00  0.000E+00  0.000E+00  1.39023E+02  9.731E-01  2.977E+00  5.512E-04  7.847E-04  2.722E-05
   1    4    8     1     8    1.7243E+00  8.1172E-04   1.7235E+00  0.000E+00  0.000E+00  0.000E+00  1.38723E+02  9.729E-01  2.977E+00  5.511E-04  7.845E-04  2.722E-05
   1    4    9     1     9    1.7235E+00  8.1148E-04   1.7227E+00  0.000E+00  0.000E+00  0.000E+00  1.38423E+02  9.727E-01  2.976E+00  5.510E-04  7.843E-04  2.720E-05
   1    4   10     1    10    1.7227E+00  8.1124E-04   1.7219E+00  0.000E+00  0.000E+00  0.000E+00  1.38122E+02  9.724E-01  2.976E+00  5.510E-04  7.841E-04  2.717E-05
   1    4   11     1    11    1.7219E+00  8.1100E-04   1.7211E+00  0.000E+00  0.000E+00  0.000E+00  1.37822E+02  9.722E-01  2.976E+00  5.509E-04  7.839E-04  2.713E-05
   1    4   12     1    12    1.7211E+00  8.1076E-04   1.7203E+00  0.000E+00  0.000E+00  0.000E+00  1.37522E+02  9.720E-01  2.975E+00  5.508E-04  7.837E-04  2.706E-05
   1    4   13     1    13    1.7203E+00  8.1052E-04   1.7194E+00  0.000E+00  0.000E+00  0.000E+00  1.37222E+02  9.717E-01  2.975E+00  5.507E-04  7.835E-04  2.697E-05
   1    4   14     1    14    1.7194E+00  8.1028E-04   1.7186E+00  0.000E+00  0.000E+00  0.000E+00  1.36922E+02  9.715E-01  2.975E+00  5.506E-04  7.834E-04  2.687E-05
   1    4   15     1    15    1.7186E+00  8.1004E-04   1.7178E+00  0.000E+00  0.000E+00  0.000E+00  1.36621E+02  9.713E-01  2.975E+00  5.506E-04  7.833E-04  2.674E-05
   1    4   16     1    16    1.7178E+00  8.0980E-04   1.7170E+00  0.000E+00  0.000E+00  0.000E+00  1.36321E+02  9.710E-01  2.974E+00  5.505E-04  7.832E-04  2.659E-05
   1    4   17     1    17    1.7170E+00  8.0956E-04   1.7162E+00  0.000E+00  0.000E+00  0.000E+00  1.36021E+02  9.708E-01  2.974E+00  5.504E-04  7.832E-04  2.641E-05
   1    4   18     1    18    1.7162E+00  8.0932E-04   1.7154E+00  0.000E+00  0.000E+00  0.000E+00  1.35721E+02  9.706E-01  2.974E+00  5.503E-04  7.831E-04  2.620E-05
   1    4   19     1    19    1.7154E+00  8.0908E-04   1.7146E+00  0.000E+00  0.000E+00  0.000E+00  1.35420E+02  9.703E-01  2.973E+00  5.503E-04  7.831E-04  2.597E-05
   1    4   20     1    20    1.7146E+00  8.0884E-04   1.7138E+00  0.000E+00  0.000E+00  0.000E+00  1.35120E+02  9.701E-01  2.973E+00  5.502E-04  7.831E-04  2.574E-05
   1    4   21     1    21    1.7138E+00  8.0860E-04   1.7130E+00  0.000E+00  0.000E+00  0.000E+00  1.34820E+02  9.699E-01  2.973E+00  5.501E-04  7.754E-04  3.319E-05
   1    4   22     1    22    1.7130E+00  8.0836E-04   1.7122E+00  0.000E+00  0.000E+00  0.000E+00  1.34520E+02  9.696E-01  2.973E+00  5.500E-04  7.334E-04  7.495E-05
   1    4   23     1    23    1.7122E+00  8.0812E-04   1.7114E+00  0.000E+00  0.000E+00  0.000E+00  1.34219E+02  9.694E-01  2.972E+00  5.500E-04  6.879E-04  1.202E-04
   1    4   24     1    24    1.7114E+00  8.0788E-04   1.7105E+00  0.000E+00  0.000E+00  0.000E+00  1.33919E+02  9.692E-01  2.972E+00  5.499E-04  6.565E-04  1.513E-04
   1    4   25     1    25    1.7105E+00  8.0764E-04   1.7097E+00  0.000E+00  0.000E+00  0.000E+00  1.33619E+02  9.689E-01  2.972E+00  5.498E-04  6.147E-04  1.929E-04
   1    4   26     1    26    1.7097E+00  8.0740E-04   1.7089E+00  0.000E+00  0.000E+00  0.000E+00  1.33319E+02  9.687E-01  2.971E+00  5.497E-04  5.581E-04  2.493E-04
   1    4   27     1    27    1.7089E+00  8.0716E-04   1.7081E+00  0.000E+00  0.000E+00  0.000E+00  1.33018E+02  9.685E-01  2.971E+00  5.497E-04  5.119E-04  2.952E-04
   1    4   28     1    28    1.7081E+00  8.0692E-04   1.7073E+00  0.000E+00  0.000E+00  0.000E+00  1.32718E+02  9.682E-01  2.971E+00  5.496E-04  5.120E-04  2.949E-04
   1    4   29     1    29    1.7073E+00  8.0668E-04   1.7065E+00  0.000E+00  0.000E+00  0.000E+00  1.32418E+02  9.680E-01  2.971E+00  5.495E-04  5.123E-04  2.944E-04
   1    4   30     1    30    1.7065E+00  8.0644E-04   1.7057E+00  0.000E+00  0.000E+00  0.000E+00  1.32118E+02  9.678E-01  2.970E+00  5.494E-04  5.126E-04  2.938E-04
   1    4   31     1    31    1.7057E+00  8.0620E-04   1.7049E+00  0.000E+00  0.000E+00  0.000E+00  1.31818E+02  9.675E-01  2.970E+00  5.494E-04  5.130E-04  2.932E-04
   1    4   32     1    32    1.7049E+00  8.0596E-04   1.7041E+00  0.000E+00  0.000E+00  0.000E+00  1.31517E+02  9.673E-01  2.970E+00  5.493E-04  5.134E-04  2.926E-04
   1    4   33     1    33    1.7041E+00  8.0572E-04   1.7033E+00  0.000E+00  0.000E+00  0.000E+00  1.31217E+02  9.671E-01  2.970E+00  5.492E-04  5.742E-04  2.315E-04
   1    4   34     1    34    1.7033E+00  8.0548E-04   1.7025E+00  0.000E+00  0.000E+00  0.000E+00  1.30917E+02  9.668E-01  2.969E+00  5.491E-04  5.753E-04  2.301E-04
   1    4   35     1    35    1.7025E+00  8.0524E-04   1.7017E+00  0.000E+00  0.000E+00  0.000E+00  1.30617E+02  9.666E-01  2.969E+00  5.490E-04  5.765E-04  2.287E-04
   1    4   36     1    36    1.7017E+00  8.0500E-04   1.7009E+00  0.000E+00  0.000E+00  0.000E+00  1.30316E+02  9.664E-01  2.969E+00  5.490E-04  5.778E-04  2.272E-04
   1    4   37     1    37    1.7009E+00  8.0476E-04   1.7001E+00  0.000E+00  0.000E+00  0.000E+00  1.30016E+02  9.661E-01  2.968E+00  5.489E-04  5.793E-04  2.255E-04
   1    4   38     1    38    1.7001E+00  8.0452E-04   1.6993E+00  0.000E+00  0.000E+00  0.000E+00  1.29716E+02  9.659E-01  2.968E+00  5.488E-04  5.809E-04  2.236E-04
   1    4   39     1    39    1.6993E+00  8.0428E-04   1.6985E+00  0.000E+00  0.000E+00  0.000E+00  1.29416E+02  9.657E-01  2.968E+00  5.487E-04  5.827E-04  2.216E-04
   1    4   40     1    40    1.6985E+00  8.0404E-04   1.6977E+00  0.000E+00  0.000E+00  0.000E+00  1.29115E+02  9.654E-01  2.968E+00  5.487E-04  5.848E-04  2.193E-04
   1    4   41     1    41    1.6977E+00  8.0380E-04   1.6968E+00  0.000E+00  0.000E+00  0.000E+00  1.28815E+02  9.652E-01  2.967E+00  5.486E-04  5.872E-04  2.166E-04
   1    4   42     1    42    1.6968E+00  8.0356E-04   1.6960E+00  0.000E+00  0.000E+00  0.000E+00  1.28515E+02  9.650E-01  2.967E+00  5.485E-04  5.829E-04  2.207E-04
   1    4   43     1    43    1.6960E+00  8.0333E-04   1.6952E+00  0.000E+00  0.000E+00  0.000E+00  1.28215E+02  9.647E-01  2.967E+00  5.484E-04  5.252E-04  2.782E-04
   1    4   44     1    44    1.6952E+00  8.0309E-04   1.6944E+00  0.000E+00  0.000E+00  0.000E+00  1.27915E+02  9.645E-01  2.966E+00  5.484E-04  5.155E-04  2.876E-04
   1    4   45     1    45    1.6944E+00  8.0285E-04   1.6936E+00  0.000E+00  0.000E+00  0.000E+00  1.27614E+02  9.643E-01  2.966E+00  5.483E-04  5.190E-04  2.838E-04
   1    4   46     1    46    1.6936E+00  8.0261E-04   1.6928E+00  0.000E+00  0.000E+00  0.000E+00  1.27314E+02  9.640E-01  2.966E+00  5.482E-04  5.233E-04  2.793E-04
   1    4   47     1    47    1.6928E+00  8.0237E-04   1.6920E+00  0.000E+00  0.000E+00  0.000E+00  1.27014E+02  9.638E-01  2.966E+00  5.481E-04  5.824E-04  2.199E-04
   1    4   48     1    48    1.6920E+00  8.0213E-04   1.6912E+00  0.000E+00  0.000E+00  0.000E+00  1.26714E+02  9.636E-01  2.965E+00  5.481E-04  5.888E-04  2.133E-04
   1    4   49     1    49    1.6912E+00  8.0189E-04   1.6904E+00  0.000E+00  0.000E+00  0.000E+00  1.26413E+02  9.634E-01  2.965E+00  5.480E-04  5.304E-04  2.715E-04
   1    4   50     1    50    1.6904E+00  8.0165E-04   1.6896E+00  0.000E+00  0.000E+00  0.000E+00  1.26113E+02  9.631E-01  2.965E+00  5.479E-04  5.999E-04  2.018E-04
   1    4   51     1    51    1.6896E+00  8.0142E-04   1.6888E+00  0.000E+00  0.000E+00  0.000E+00  1.25813E+02  9.629E-01  2.965E+00  5.478E-04  5.953E-04  2.061E-04
   1    4   52     1    52    1.6888E+00  8.0118E-04   1.6880E+00  0.000E+00  0.000E+00  0.000E+00  1.25513E+02  9.627E-01  2.964E+00  5.478E-04  5.930E-04  2.082E-04
   1    4   53     1    53    1.6880E+00  8.0094E-04   1.6872E+00  0.000E+00  0.000E+00  0.000E+00  1.25212E+02  9.624E-01  2.964E+00  5.477E-04  5.921E-04  2.088E-04
   1    4   54     1    54    1.6872E+00  8.0070E-04   1.6864E+00  0.000E+00  0.000E+00  0.000E+00  1.24912E+02  9.622E-01  2.964E+00  5.476E-04  5.929E-04  2.078E-04
   1    4   55     1    55    1.6864E+00  8.0046E-04   1.6856E+00  0.000E+00  0.000E+00  0.000E+00  1.24612E+02  9.620E-01  2.963E+00  5.475E-04  5.962E-04  2.042E-04
   1    4   56     1    56    1.6856E+00  8.0022E-04   1.6848E+00  0.000E+00  0.000E+00  0.000E+00  1.24312E+02  9.617E-01  2.963E+00  5.475E-04  5.244E-04  2.758E-04
   1    4   57     1    57    1.6848E+00  7.9998E-04   1.6840E+00  0.000E+00  0.000E+00  0.000E+00  1.24011E+02  9.615E-01  2.963E+00  5.474E-04  5.810E-04  2.190E-04
   1    4   58     1    58    1.6840E+00  7.9975E-04   1.6832E+00  0.000E+00  0.000E+00  0.000E+00  1.23711E+02  9.613E-01  2.963E+00  5.473E-04  5.727E-04  2.271E-04
   1    4   59     1    59    1.6832E+00  7.9951E-04   1.6824E+00  0.000E+00  0.000E+00  0.000E+00  1.23411E+02  9.610E-01  2.962E+00  5.472E-04  5.247E-04  2.748E-04
   1    4   60     1    60    1.6824E+00  7.9927E-04   1.6816E+00  0.000E+00  0.000E+00  0.000E+00  1.23111E+02  9.608E-01  2.962E+00  5.471E-04  5.090E-04  2.903E-04
   1    4   61     1    61    1.6816E+00  7.9903E-04   1.6808E+00  0.000E+00  0.000E+00  0.000E+00  1.22811E+02  9.606E-01  2.962E+00  5.471E-04  5.046E-04  2.944E-04
   1    4   62     1    62    1.6808E+00  7.9879E-04   1.6800E+00  0.000E+00  0.000E+00  0.000E+00  1.22510E+02  9.603E-01  2.961E+00  5.470E-04  5.009E-04  2.979E-04
   1    4   63     1    63    1.6800E+00  7.9856E-04   1.6792E+00  0.000E+00  0.000E+00  0.000E+00  1.22210E+02  9.601E-01  2.961E+00  5.469E-04  5.418E-04  2.567E-04
   1    4   64     1    64    1.6792E+00  7.9832E-04   1.6784E+00  0.000E+00  0.000E+00  0.000E+00  1.21910E+02  9.599E-01  2.961E+00  5.468E-04  5.744E-04  2.239E-04
   1    4   65     1    65    1.6784E+00  7.9808E-04   1.6776E+00  0.000E+00  0.000E+00  0.000E+00  1.21610E+02  9.596E-01  2.961E+00  5.468E-04  5.715E-04  2.266E-04
   1    4   66     1    66    1.6776E+00  7.9784E-04   1.6768E+00  0.000E+00  0.000E+00  0.000E+00  1.21309E+02  9.594E-01  2.960E+00  5.467E-04  5.692E-04  2.287E-04
   1    4   67     1    67    1.6768E+00  7.9761E-04   1.6760E+00  0.000E+00  0.000E+00  0.000E+00  1.21009E+02  9.592E-01  2.960E+00  5.466E-04  5.672E-04  2.304E-04
   1    4   68     1    68    1.6760E+00  7.9737E-04   1.6752E+00  0.000E+00  0.000E+00  0.000E+00  1.20709E+02  9.589E-01  2.960E+00  5.465E-04  5.656E-04  2.318E-04
   1    4   69     1    69    1.6752E+00  7.9713E-04   1.6744E+00  0.000E+00  0.000E+00  0.000E+00  1.20409E+02  9.587E-01  2.960E+00  5.465E-04  5.642E-04  2.329E-04
   1    4   70     1    70    1.6744E+00  7.9689E-04   1.6736E+00  0.000E+00  0.000E+00  0.000E+00  1.20108E+02  9.585E-01  2.959E+00  5.464E-04  5.631E-04  2.338E-04
   1    4   71     1    71    1.6736E+00  7.9666E-04   1.6728E+00  0.000E+00  0.000E+00  0.000E+00  1.19808E+02  9.582E-01  2.959E+00  5.463E-04  5.623E-04  2.344E-04
   1    4   72     1    72    1.6728E+00  7.9642E-04   1.6720E+00  0.000E+00  0.000E+00  0.000E+00  1.19508E+02  9.580E-01  2.959E+00  5.462E-04  5.616E-04  2.348E-04
   1    4   73     1    73    1.6720E+00  7.9618E-04   1.6713E+00  0.000E+00  0.000E+00  0.000E+00  1.19208E+02  9.578E-01  2.958E+00  5.462E-04  5.017E-04  2.945E-04
   1    4   74     1    74    1.6713E+00  7.9594E-04   1.6705E+00  0.000E+00  0.000E+00  0.000E+00  1.18908E+02  9.575E-01  2.958E+00  5.461E-04  5.018E-04  2.942E-04
   1    4   75     1    75    1.6705E+00  7.9571E-04   1.6697E+00  0.000E+00  0.000E+00  0.000E+00  1.18607E+02  9.573E-01  2.958E+00  5.460E-04  5.019E-04  2.938E-04
   1    4   76     1    76    1.6697E+00  7.9547E-04   1.6689E+00  0.000E+00  0.000E+00  0.000E+00  1.18307E+02  9.571E-01  2.958E+00  5.459E-04  5.022E-04  2.932E-04
   1    4   77     1    77    1.6689E+00  7.9523E-04   1.6681E+00  0.000E+00  0.000E+00  0.000E+00  1.18007E+02  9.568E-01  2.957E+00  5.459E-04  5.028E-04  2.924E-04
   1    4   78     1    78    1.6681E+00  7.9500E-04   1.6673E+00  0.000E+00  0.000E+00  0.000E+00  1.17707E+02  9.566E-01  2.957E+00  5.458E-04  5.243E-04  2.707E-04
   1    4   79     1    79    1.6673E+00  7.9476E-04   1.6665E+00  0.000E+00  0.000E+00  0.000E+00  1.17406E+02  9.564E-01  2.957E+00  5.457E-04  5.955E-04  1.993E-04
   1    4   80     1    80    1.6665E+00  7.9452E-04   1.6657E+00  0.000E+00  0.000E+00  0.000E+00  1.17106E+02  9.561E-01  2.956E+00  5.456E-04  6.631E-04  1.314E-04
   1    4   81     1    81    1.6657E+00  7.9428E-04   1.6649E+00  0.000E+00  0.000E+00  0.000E+00  1.16806E+02  9.559E-01  2.956E+00  5.456E-04  7.274E-04  6.689E-05
   1    4   82     1    82    1.6649E+00  7.9405E-04   1.6641E+00  0.000E+00  0.000E+00  0.000E+00  1.16506E+02  9.557E-01  2.956E+00  5.455E-04  7.884E-04  5.658E-06
   1    4   83     1    83    1.6641E+00  7.9381E-04   1.6633E+00  0.000E+00  0.000E+00  0.000E+00  1.16205E+02  9.555E-01  2.956E+00  5.454E-04  8.070E-04 -1.318E-05
   1    4   84     1    84    1.6633E+00  7.9357E-04   1.6625E+00  0.000E+00  0.000E+00  0.000E+00  1.15905E+02  9.552E-01  2.955E+00  5.453E-04  8.086E-04 -1.502E-05
   1    4   85     1    85    1.6625E+00  7.9334E-04   1.6617E+00  0.000E+00  0.000E+00  0.000E+00  1.15605E+02  9.550E-01  2.955E+00  5.453E-04  7.973E-04 -3.999E-06
   1    4   86     1    86    1.6617E+00  7.9310E-04   1.6609E+00  0.000E+00  0.000E+00  0.000E+00  1.15305E+02  9.548E-01  2.955E+00  5.452E-04  7.882E-04  4.871E-06
   1    4   87     1    87    1.6609E+00  7.9286E-04   1.6601E+00  0.000E+00  0.000E+00  0.000E+00  1.15005E+02  9.545E-01  2.955E+00  5.451E-04  7.906E-04  2.275E-06
   1    4   88     1    88    1.6601E+00  7.9263E-04   1.6593E+00  0.000E+00  0.000E+00  0.000E+00  1.14704E+02  9.543E-01  2.954E+00  5.450E-04  7.932E-04 -5.316E-07
   1    4   89     1    89    1.6593E+00  7.9239E-04   1.6585E+00  0.000E+00  0.000E+00  0.000E+00  1.14404E+02  9.541E-01  2.954E+00  5.450E-04  7.960E-04 -3.626E-06
   1    4   90     1    90    1.6585E+00  7.9216E-04   1.6578E+00  0.000E+00  0.000E+00  0.000E+00  1.14104E+02  9.538E-01  2.954E+00  5.449E-04  7.990E-04 -6.876E-06
   1    4   91     1    91    1.6578E+00  7.9192E-04   1.6570E+00  0.000E+00  0.000E+00  0.000E+00  1.13804E+02  9.536E-01  2.953E+00  5.448E-04  8.022E-04 -1.026E-05
   1    4   92     1    92    1.6570E+00  7.9168E-04   1.6562E+00  0.000E+00  0.000E+00  0.000E+00  1.13503E+02  9.534E-01  2.953E+00  5.447E-04  8.054E-04 -1.375E-05
   1    4   93     1    93    1.6562E+00  7.9145E-04   1.6554E+00  0.000E+00  0.000E+00  0.000E+00  1.13203E+02  9.531E-01  2.953E+00  5.446E-04  8.088E-04 -1.735E-05
   1    4   94     1    94    1.6554E+00  7.9121E-04   1.6546E+00  0.000E+00  0.000E+00  0.000E+00  1.12903E+02  9.529E-01  2.953E+00  5.446E-04  8.122E-04 -2.101E-05
   1    4   95     1    95    1.6546E+00  7.9097E-04   1.6538E+00  0.000E+00  0.000E+00  0.000E+00  1.12603E+02  9.527E-01  2.952E+00  5.445E-04  8.157E-04 -2.472E-05
   1    4   96     1    96    1.6538E+00  7.9074E-04   1.6530E+00  0.000E+00  0.000E+00  0.000E+00  1.12302E+02  9.524E-01  2.952E+00  5.444E-04  8.192E-04 -2.844E-05
   1    4   97     1    97    1.6530E+00  7.9050E-04   1.6522E+00  0.000E+00  0.000E+00  0.000E+00  1.12002E+02  9.522E-01  2.952E+00  5.443E-04  8.195E-04 -2.901E-05
   1    4   98     1    98    1.6522E+00  7.9027E-04   1.6514E+00  0.000E+00  0.000E+00  0.000E+00  1.11702E+02  9.520E-01  2.951E+00  5.443E-04  8.056E-04 -1.534E-05
   1    4   99     1    99    1.6514E+00  7.9003E-04   1.6506E+00  0.000E+00  0.000E+00  0.000E+00  1.11402E+02  9.517E-01  2.951E+00  5.442E-04  8.088E-04 -1.875E-05
   1    4  100     1   100    1.6506E+00  7.8980E-04   1.6498E+00  0.000E+00  0.000E+00  0.000E+00  1.11102E+02  9.515E-01  2.951E+00  5.441E-04  8.119E-04 -2.207E-05



1
  VOLUMETRIC BUDGET FOR UNSATURATED ZONE BENEATH STREAMS AT END OF TIME STEP    30 STRESS PERIOD  28
  ------------------------------------------------------------------------------------------------

    CUMULATIVE VOLUMES             L**3    RATES FOR THIS TIME STEP         L**3/T
    ------------------                     ------------------------


          STREAM LOSS =     27754502.0000            STREAM LOSS =        8.0156E-02
    CHANGE IN STORAGE =      1174875.6250      CHANGE IN STORAGE =        1.4557E-02
       RECHARGE TO GW =     26586892.0000         RECHARGE TO GW =        6.5599E-02

             TOTAL IN =     27754502.0000               TOTAL IN =        8.0156E-02

            TOTAL OUT =     27761768.0000              TOTAL OUT =        8.0156E-02

             IN - OUT =        -7266.0000               IN - OUT =        7.4506E-09

  PERCENT DISCREPANCY =           -0.01      PERCENT DISCREPANCY =             0.00



1
  VOLUMETRIC BUDGET FOR ENTIRE MODEL AT END OF TIME STEP   30, STRESS PERIOD  28
  ------------------------------------------------------------------------------

     CUMULATIVE VOLUMES      L**3       RATES FOR THIS TIME STEP      L**3/T
     ------------------                 ------------------------

           IN:                                      IN:
           ---                                      ---
             STORAGE     =    97028016.0000               STORAGE     =           0.6456
       CONSTANT HEAD     =           0.0000         CONSTANT HEAD     =           0.0000
               WELLS     =           0.0000                 WELLS     =           0.0000
     HEAD DEP BOUNDS     =       92543.6719       HEAD DEP BOUNDS     =       2.6081E-02
      STREAM LEAKAGE     =    26586584.0000        STREAM LEAKAGE     =       6.5599E-02

                TOTAL IN =   123707144.0000                  TOTAL IN =           0.7373

          OUT:                                     OUT:
          ----                                     ----
             STORAGE     =     3026920.0000               STORAGE     =           0.0000
       CONSTANT HEAD     =           0.0000         CONSTANT HEAD     =           0.0000
               WELLS     =   104320880.0000                 WELLS     =           0.7373
     HEAD DEP BOUNDS     =    16359348.0000       HEAD DEP BOUNDS     =           0.0000
      STREAM LEAKAGE     =           0.0000        STREAM LEAKAGE     =           0.0000

               TOTAL OUT =   123707152.0000                 TOTAL OUT =           0.7373

                IN - OUT =          -8.0000                  IN - OUT =      -5.9605E-08

     PERCENT DISCREPANCY =          -0.00         PERCENT DISCREPANCY =          -0.00






         TIME SUMMARY AT END OF TIME STEP   30 IN STRESS PERIOD   28
                    SECONDS     MINUTES      HOURS       DAYS        YEARS
                    -----------------------------------------------------------
   TIME STEP LENGTH 2.49961E+05  4166.0      69.434      2.8931     7.92080E-03
 STRESS PERIOD TIME 2.59200E+06  43200.      720.00      30.000     8.21355E-02
         TOTAL TIME 7.25760E+07 1.20960E+06  20160.      840.00      2.2998    
1
1
                            STRESS PERIOD NO.   29, LENGTH =   2592000.    
                            -----------------------------------------------

                              NUMBER OF TIME STEPS =    30

                               MULTIPLIER FOR DELT =     1.100

                            INITIAL TIME STEP SIZE =   15757.40    

 REUSING NON-PARAMETER WELLS FROM LAST STRESS PERIOD

      1 WELL 

 REUSING NON-PARAMETER GHB CELLS FROM LAST STRESS PERIOD

      7 GHB CELLS



 CLASSIFICATION & COUNT OF STREAM SEGMENTS BASED ON SOURCE OF INFLOW:

                HEADWATER     DIVERSION     RECEIVES TRIBUTARY FLOW
                ---------     ---------     -----------------------
                     1              0               0



                    INPUT DATA FOR EACH STREAM SEGMENT
 ---------------------------------------------------------------------------------------------

 SEGMENT    SEG.     INFLOW   OVERLAND   STREAM    STREAM   ICALC  OUTFLOW  DIVERSION PRIORITY
    NO.    LENGTH     RATE     RUNOFF      ET       PPT.    METH.  TO SEG.  FROM SEG.    NO.

      1  2.000E+04 5.680E+00 0.000E+00 0.000E+00 0.000E+00    2        0        0        0


         STREAMBED PROPERTIES AND STREAM DIMENSIONS

 SEGMENT     BED HYD. COND.      BED THICKNESS     ELEV.-TOP OF BED     WIDTH OF STREAM     DEPTH OF STREAM    STREAM ROUGHNESS
    No.     UPPER     LOWER     UPPER     LOWER     UPPER     LOWER     UPPER     LOWER     UPPER     LOWER   CHANNEL      BANK

     1  3.500E-07 3.500E-07                                                                                 3.000E-02 4.000E-02

  EIGHT POINT CROSS-SECTION DATA FOR SEGMENTS WITH ICALC = 2
    X VALUES X VALUES START FROM LEFT SIDE LOOKING DOWNSTREAM

     SEGMENT NO.        X1        X2        X3        X4        X5        X6        X7        X8
            1      0.000E+00 2.000E+00 4.000E+00 6.000E+00 8.000E+00 1.000E+01 1.200E+01 1.400E+01

    Z VALUES ARE RELATIVE TO STREAMBED ELEVATION

     SEGMENT NO.          Z1        Z2        Z3        Z4        Z5        Z6        Z7        Z8
            1      6.000E+00 4.500E+00 3.500E+00 0.000E+00 3.000E-01 3.500E+00 4.500E+00 6.000E+00



 
 SOLVING FOR HEAD 
                                                   Max.-Head-Change                         Max.-Flux-Residual
  Residual-Control   Outer-Iter.   Inner-Iter.     Column Row Layer    Maximum-Head-Change  Column Row Layer    Maximum-Flux-Residual          L2-NORM 
          0                 1           2             3    1     1      -0.6403494794E-02      50    3    1         0.1705052597E+00      0.2175966798E+00
          0                 2           2             4    1     1       0.6240980048E-03      55    5    1        -0.2304423184E-01      0.3140577939E-01
          0                 3           1             4    1     1      -0.5494961133E-04      50    3    1         0.2120020984E-02      0.2977371024E-02
          0                 4           1             4    1     1       0.4320063759E-05      50    3    1        -0.1681179990E-03      0.2375133453E-03
          0                 5           1             4    1     1      -0.2989098617E-06      50    3    1         0.1182923357E-04      0.1670510359E-04

    ------------------------------------------------
       NWT REQUIRED            5 OUTER ITERATIONS 
       AND A TOTAL OF          7 INNER ITERATIONS.
    ------------------------------------------------

 NO OUTPUT CONTROL FOR STRESS PERIOD   29   TIME STEP    1
 
 WELLS WITH REDUCED PUMPING FOR STRESS PERIOD    29 TIME STEP     1
   LAY   ROW   COL         APPL.Q          ACT.Q        GW-HEAD       CELL-BOT
     1     3    50  -0.671303E+00  -0.414616E+00   0.648567E-03   0.000000E+00
     1     5    55  -0.671303E+00  -0.322478E+00   0.540475E-03   0.000000E+00
 
 
 SOLVING FOR HEAD 
                                                   Max.-Head-Change                         Max.-Flux-Residual
  Residual-Control   Outer-Iter.   Inner-Iter.     Column Row Layer    Maximum-Head-Change  Column Row Layer    Maximum-Flux-Residual          L2-NORM 
          0                 1           2             4    1     1      -0.7040119947E-02       3    1    1        -0.1332030501E-02      0.2621387880E-01
          0                 2           2             4    1     1       0.6848376362E-03       3    1    1         0.1332028357E-03      0.2546674716E-02
          0                 3           1             4    1     1      -0.6019048649E-04       3    1    1        -0.1198827719E-04      0.2316653212E-03
          0                 4           1             4    1     1       0.4724614094E-05       3    1    1         0.9602609836E-06      0.1893511324E-04
          0                 5           1             5    7     1      -0.3264641173E-06       3    1    1        -0.6750542880E-07      0.1355422999E-05

    ------------------------------------------------
       NWT REQUIRED            5 OUTER ITERATIONS 
       AND A TOTAL OF          7 INNER ITERATIONS.
    ------------------------------------------------

 NO OUTPUT CONTROL FOR STRESS PERIOD   29   TIME STEP    2
 
 WELLS WITH REDUCED PUMPING FOR STRESS PERIOD    29 TIME STEP     2
   LAY   ROW   COL         APPL.Q          ACT.Q        GW-HEAD       CELL-BOT
     1     3    50  -0.670110E+00  -0.414555E+00   0.649340E-03   0.000000E+00
     1     5    55  -0.670110E+00  -0.322411E+00   0.541034E-03   0.000000E+00
 
 
 SOLVING FOR HEAD 
                                                   Max.-Head-Change                         Max.-Flux-Residual
  Residual-Control   Outer-Iter.   Inner-Iter.     Column Row Layer    Maximum-Head-Change  Column Row Layer    Maximum-Flux-Residual          L2-NORM 
          0                 1           2             4    1     1      -0.7740627044E-02       4    1    1        -0.1331554617E-02      0.2617536854E-01
          0                 2           2             4    1     1       0.7514609907E-03       4    1    1         0.1331552176E-03      0.2541841930E-02
          0                 3           1             4    1     1      -0.6591980907E-04       4    1    1        -0.1198399582E-04      0.2313749953E-03
          0                 4           1             5    1     1       0.5165374842E-05       4    1    1         0.9599179158E-06      0.1894628048E-04
          0                 5           1             5    7     1      -0.3563896469E-06       4    1    1        -0.6748095771E-07      0.1359284933E-05

    ------------------------------------------------
       NWT REQUIRED            5 OUTER ITERATIONS 
       AND A TOTAL OF          7 INNER ITERATIONS.
    ------------------------------------------------

 NO OUTPUT CONTROL FOR STRESS PERIOD   29   TIME STEP    3
 
 WELLS WITH REDUCED PUMPING FOR STRESS PERIOD    29 TIME STEP     3
   LAY   ROW   COL         APPL.Q          ACT.Q        GW-HEAD       CELL-BOT
     1     3    50  -0.669914E+00  -0.414465E+00   0.649377E-03   0.000000E+00
     1     5    55  -0.669914E+00  -0.322321E+00   0.541039E-03   0.000000E+00
 
 
 SOLVING FOR HEAD 
                                                   Max.-Head-Change                         Max.-Flux-Residual
  Residual-Control   Outer-Iter.   Inner-Iter.     Column Row Layer    Maximum-Head-Change  Column Row Layer    Maximum-Flux-Residual          L2-NORM 
          0                 1           2             4    1     1      -0.8511219003E-02       4    1    1        -0.1331194885E-02      0.2615272228E-01
          0                 2           2             4    1     1       0.8245243913E-03       4    1    1         0.1331192030E-03      0.2539871791E-02
          0                 3           1             4    1     1      -0.7218130129E-04       4    1    1        -0.1198075958E-04      0.2313814682E-03
          0                 4           1             5    1     1       0.5645348079E-05       4    1    1         0.9596587596E-06      0.1898267204E-04
          0                 5           1             5    7     1      -0.3888471631E-06       4    1    1        -0.6746256176E-07      0.1365080305E-05

    ------------------------------------------------
       NWT REQUIRED            5 OUTER ITERATIONS 
       AND A TOTAL OF          7 INNER ITERATIONS.
    ------------------------------------------------

 NO OUTPUT CONTROL FOR STRESS PERIOD   29   TIME STEP    4
 
 WELLS WITH REDUCED PUMPING FOR STRESS PERIOD    29 TIME STEP     4
   LAY   ROW   COL         APPL.Q          ACT.Q        GW-HEAD       CELL-BOT
     1     3    50  -0.670092E+00  -0.414367E+00   0.649138E-03   0.000000E+00
     1     5    55  -0.670092E+00  -0.322223E+00   0.540836E-03   0.000000E+00
 
 
 SOLVING FOR HEAD 
                                                   Max.-Head-Change                         Max.-Flux-Residual
  Residual-Control   Outer-Iter.   Inner-Iter.     Column Row Layer    Maximum-Head-Change  Column Row Layer    Maximum-Flux-Residual          L2-NORM 
          0                 1           2             4    1     1      -0.9358757690E-02       4    1    1        -0.1330905605E-02      0.2613054832E-01
          0                 2           2             4    1     1       0.9046372757E-03       4    1    1         0.1330902241E-03      0.2537425053E-02
          0                 3           1             5    1     1      -0.7902323888E-04       4    1    1        -0.1197815743E-04      0.2313171933E-03
          0                 4           1             5    1     1       0.6167712653E-05       4    1    1         0.9594504320E-06      0.1901354453E-04
          0                 5           1             5    7     1      -0.4240269796E-06       4    1    1        -0.6744766523E-07      0.1370684437E-05

    ------------------------------------------------
       NWT REQUIRED            5 OUTER ITERATIONS 
       AND A TOTAL OF          7 INNER ITERATIONS.
    ------------------------------------------------

 NO OUTPUT CONTROL FOR STRESS PERIOD   29   TIME STEP    5
 
 WELLS WITH REDUCED PUMPING FOR STRESS PERIOD    29 TIME STEP     5
   LAY   ROW   COL         APPL.Q          ACT.Q        GW-HEAD       CELL-BOT
     1     3    50  -0.670046E+00  -0.414259E+00   0.649047E-03   0.000000E+00
     1     5    55  -0.670046E+00  -0.322116E+00   0.540742E-03   0.000000E+00
 
 
 SOLVING FOR HEAD 
                                                   Max.-Head-Change                         Max.-Flux-Residual
  Residual-Control   Outer-Iter.   Inner-Iter.     Column Row Layer    Maximum-Head-Change  Column Row Layer    Maximum-Flux-Residual          L2-NORM 
          0                 1           2             4    1     1      -0.1029079193E-01       4    1    1        -0.1330658783E-02      0.2611151947E-01
          0                 2           2             4    1     1       0.9924708509E-03       4    1    1         0.1330654802E-03      0.2535127485E-02
          0                 3           1             5    1     1      -0.8649795104E-04       4    1    1        -0.1197593749E-04      0.2312717585E-03
          0                 4           1             5    1     1       0.6736061679E-05       4    1    1         0.9592726968E-06      0.1904738998E-04
          0                 5           1             5    1     1      -0.4621373309E-06       1    4    1         0.6789211682E-07      0.1376694812E-05

    ------------------------------------------------
       NWT REQUIRED            5 OUTER ITERATIONS 
       AND A TOTAL OF          7 INNER ITERATIONS.
    ------------------------------------------------

 NO OUTPUT CONTROL FOR STRESS PERIOD   29   TIME STEP    6
 
 WELLS WITH REDUCED PUMPING FOR STRESS PERIOD    29 TIME STEP     6
   LAY   ROW   COL         APPL.Q          ACT.Q        GW-HEAD       CELL-BOT
     1     3    50  -0.669961E+00  -0.414140E+00   0.648971E-03   0.000000E+00
     1     5    55  -0.669961E+00  -0.321998E+00   0.540657E-03   0.000000E+00
 
 
 SOLVING FOR HEAD 
                                                   Max.-Head-Change                         Max.-Flux-Residual
  Residual-Control   Outer-Iter.   Inner-Iter.     Column Row Layer    Maximum-Head-Change  Column Row Layer    Maximum-Flux-Residual          L2-NORM 
          0                 1           2             4    1     1      -0.1131563478E-01       4    1    1        -0.1330432422E-02      0.2608600551E-01
          0                 2           2             4    1     1       0.1088765425E-02       4    1    1         0.1330427709E-03      0.2533293239E-02
          0                 3           1             5    1     1      -0.9466344437E-04       4    1    1        -0.1197390175E-04      0.2313081448E-03
          0                 4           1             5    1     1       0.7354352629E-05       4    1    1         0.9591094248E-06      0.1908899635E-04
          0                 5           1             5    1     1      -0.5034059998E-06       1    4    1         0.7008875613E-07      0.1383372182E-05

    ------------------------------------------------
       NWT REQUIRED            5 OUTER ITERATIONS 
       AND A TOTAL OF          7 INNER ITERATIONS.
    ------------------------------------------------

 NO OUTPUT CONTROL FOR STRESS PERIOD   29   TIME STEP    7
 
 WELLS WITH REDUCED PUMPING FOR STRESS PERIOD    29 TIME STEP     7
   LAY   ROW   COL         APPL.Q          ACT.Q        GW-HEAD       CELL-BOT
     1     3    50  -0.669923E+00  -0.414009E+00   0.648849E-03   0.000000E+00
     1     5    55  -0.669923E+00  -0.321869E+00   0.540535E-03   0.000000E+00
 
 
 SOLVING FOR HEAD 
                                                   Max.-Head-Change                         Max.-Flux-Residual
  Residual-Control   Outer-Iter.   Inner-Iter.     Column Row Layer    Maximum-Head-Change  Column Row Layer    Maximum-Flux-Residual          L2-NORM 
          0                 1           2             4    1     1      -0.1244244443E-01       4    1    1        -0.1330210886E-02      0.2606318002E-01
          0                 2           2             4    1     1       0.1194338082E-02       4    1    1         0.1330205316E-03      0.2530275444E-02
          0                 3           1             5    1     1      -0.1035841191E-03       4    1    1        -0.1197190958E-04      0.2311681265E-03
          0                 4           1             4    1     1       0.8027042098E-05       4    1    1         0.9589491654E-06      0.1911489269E-04
          0                 5           1             4    1     1      -0.5480986600E-06      33    4    1         0.7228145371E-07      0.1389096776E-05

    ------------------------------------------------
       NWT REQUIRED            5 OUTER ITERATIONS 
       AND A TOTAL OF          7 INNER ITERATIONS.
    ------------------------------------------------

 NO OUTPUT CONTROL FOR STRESS PERIOD   29   TIME STEP    8
 
 WELLS WITH REDUCED PUMPING FOR STRESS PERIOD    29 TIME STEP     8
   LAY   ROW   COL         APPL.Q          ACT.Q        GW-HEAD       CELL-BOT
     1     3    50  -0.669940E+00  -0.413865E+00   0.648671E-03   0.000000E+00
     1     5    55  -0.669940E+00  -0.321727E+00   0.540369E-03   0.000000E+00
 
 
 SOLVING FOR HEAD 
                                                   Max.-Head-Change                         Max.-Flux-Residual
  Residual-Control   Outer-Iter.   Inner-Iter.     Column Row Layer    Maximum-Head-Change  Column Row Layer    Maximum-Flux-Residual          L2-NORM 
          0                 1           2             3    1     1      -0.1368131980E-01       4    1    1        -0.1329983615E-02      0.2603276150E-01
          0                 2           2             4    1     1       0.1310089910E-02       4    1    1         0.1329977053E-03      0.2528373016E-02
          0                 3           2             5    1     1      -0.1133325099E-03       4    1    1        -0.1196986600E-04      0.2312217690E-03
          0                 4           1             5    1     1       0.8760156296E-05       4    1    1         0.9587855381E-06      0.1916190232E-04
          0                 5           1             5    1     1      -0.5965403538E-06      33    4    1         0.7519863310E-07      0.1396424761E-05

    ------------------------------------------------
       NWT REQUIRED            5 OUTER ITERATIONS 
       AND A TOTAL OF          8 INNER ITERATIONS.
    ------------------------------------------------

 NO OUTPUT CONTROL FOR STRESS PERIOD   29   TIME STEP    9
 
 WELLS WITH REDUCED PUMPING FOR STRESS PERIOD    29 TIME STEP     9
   LAY   ROW   COL         APPL.Q          ACT.Q        GW-HEAD       CELL-BOT
     1     3    50  -0.669972E+00  -0.413706E+00   0.648468E-03   0.000000E+00
     1     5    55  -0.669972E+00  -0.321571E+00   0.540179E-03   0.000000E+00
 
 
 SOLVING FOR HEAD 
                                                   Max.-Head-Change                         Max.-Flux-Residual
  Residual-Control   Outer-Iter.   Inner-Iter.     Column Row Layer    Maximum-Head-Change  Column Row Layer    Maximum-Flux-Residual          L2-NORM 
          0                 1           2             3    1     1      -0.1504354765E-01       3    1    1        -0.1329750279E-02      0.2600511571E-01
          0                 2           2             4    1     1       0.1437014504E-02       3    1    1         0.1329742602E-03      0.2524621421E-02
          0                 3           2             4    1     1      -0.1239857800E-03       3    1    1        -0.1196776817E-04      0.2310033532E-03
          0                 4           1             5    1     1       0.9557198344E-05       3    1    1         0.9586173384E-06      0.1918231960E-04
          0                 5           1             4    1     1      -0.6489610945E-06      33    4    1         0.7800761814E-07      0.1401957295E-05

    ------------------------------------------------
       NWT REQUIRED            5 OUTER ITERATIONS 
       AND A TOTAL OF          8 INNER ITERATIONS.
    ------------------------------------------------

 NO OUTPUT CONTROL FOR STRESS PERIOD   29   TIME STEP   10
 
 WELLS WITH REDUCED PUMPING FOR STRESS PERIOD    29 TIME STEP    10
   LAY   ROW   COL         APPL.Q          ACT.Q        GW-HEAD       CELL-BOT
     1     3    50  -0.669943E+00  -0.413532E+00   0.648289E-03   0.000000E+00
     1     5    55  -0.669943E+00  -0.321399E+00   0.540005E-03   0.000000E+00
 
 
 SOLVING FOR HEAD 
                                                   Max.-Head-Change                         Max.-Flux-Residual
  Residual-Control   Outer-Iter.   Inner-Iter.     Column Row Layer    Maximum-Head-Change  Column Row Layer    Maximum-Flux-Residual          L2-NORM 
          0                 1           2             3    1     1      -0.1654115763E-01       3    1    1        -0.1329513067E-02      0.2597136326E-01
          0                 2           2             4    1     1       0.1576206144E-02       3    1    1         0.1329504083E-03      0.2522434833E-02
          0                 3           2             4    1     1      -0.1356319593E-03       3    1    1        -0.1196563555E-04      0.2309970815E-03
          0                 4           1             5    1     1       0.1042498766E-04       3    1    1         0.9584463356E-06      0.1922110129E-04
          0                 5           1             4    1     1      -0.7057423539E-06      33    4    1         0.8063905632E-07      0.1408792759E-05

    ------------------------------------------------
       NWT REQUIRED            5 OUTER ITERATIONS 
       AND A TOTAL OF          8 INNER ITERATIONS.
    ------------------------------------------------

 NO OUTPUT CONTROL FOR STRESS PERIOD   29   TIME STEP   11
 
 WELLS WITH REDUCED PUMPING FOR STRESS PERIOD    29 TIME STEP    11
   LAY   ROW   COL         APPL.Q          ACT.Q        GW-HEAD       CELL-BOT
     1     3    50  -0.670022E+00  -0.413340E+00   0.648014E-03   0.000000E+00
     1     5    55  -0.670022E+00  -0.321211E+00   0.539755E-03   0.000000E+00
 
 
 SOLVING FOR HEAD 
                                                   Max.-Head-Change                         Max.-Flux-Residual
  Residual-Control   Outer-Iter.   Inner-Iter.     Column Row Layer    Maximum-Head-Change  Column Row Layer    Maximum-Flux-Residual          L2-NORM 
          0                 1           2             3    1     1      -0.1818755174E-01       3    1    1        -0.1329254918E-02      0.2594011640E-01
          0                 2           2             3    1     1       0.1728880353E-02       3    1    1         0.1329244446E-03      0.2518140079E-02
          0                 3           2             4    1     1      -0.1483667160E-03       3    1    1        -0.1196331477E-04      0.2306843433E-03
          0                 4           1             5    1     1       0.1137016209E-04       3    1    1         0.9582602161E-06      0.1923143864E-04
          0                 5           1             4    1     1      -0.7672533803E-06      34    4    1         0.8082533931E-07      0.1413623945E-05

    ------------------------------------------------
       NWT REQUIRED            5 OUTER ITERATIONS 
       AND A TOTAL OF          8 INNER ITERATIONS.
    ------------------------------------------------

 NO OUTPUT CONTROL FOR STRESS PERIOD   29   TIME STEP   12
 
 WELLS WITH REDUCED PUMPING FOR STRESS PERIOD    29 TIME STEP    12
   LAY   ROW   COL         APPL.Q          ACT.Q        GW-HEAD       CELL-BOT
     1     3    50  -0.670034E+00  -0.413129E+00   0.647765E-03   0.000000E+00
     1     5    55  -0.670034E+00  -0.321003E+00   0.539519E-03   0.000000E+00
 
 
 SOLVING FOR HEAD 
                                                   Max.-Head-Change                         Max.-Flux-Residual
  Residual-Control   Outer-Iter.   Inner-Iter.     Column Row Layer    Maximum-Head-Change  Column Row Layer    Maximum-Flux-Residual          L2-NORM 
          0                 1           2             2    1     1      -0.1999774306E-01       2    7    1        -0.1328974129E-02      0.2590686562E-01
          0                 2           2             3    1     1       0.1896373517E-02       2    1    1         0.1328962012E-03      0.2515575073E-02
          0                 3           2             4    1     1      -0.1622959992E-03       2    1    1        -0.1196079064E-04      0.2305818518E-03
          0                 4           1             5    1     1       0.1240006161E-04       2    1    1         0.9580577753E-06      0.1925702123E-04
          0                 5           1             4    1     1      -0.8339012830E-06      34    4    1         0.8365570281E-07      0.1419246539E-05

    ------------------------------------------------
       NWT REQUIRED            5 OUTER ITERATIONS 
       AND A TOTAL OF          8 INNER ITERATIONS.
    ------------------------------------------------

 NO OUTPUT CONTROL FOR STRESS PERIOD   29   TIME STEP   13
 
 WELLS WITH REDUCED PUMPING FOR STRESS PERIOD    29 TIME STEP    13
   LAY   ROW   COL         APPL.Q          ACT.Q        GW-HEAD       CELL-BOT
     1     3    50  -0.670034E+00  -0.412897E+00   0.647500E-03   0.000000E+00
     1     5    55  -0.670034E+00  -0.320775E+00   0.539267E-03   0.000000E+00
 
 
 SOLVING FOR HEAD 
                                                   Max.-Head-Change                         Max.-Flux-Residual
  Residual-Control   Outer-Iter.   Inner-Iter.     Column Row Layer    Maximum-Head-Change  Column Row Layer    Maximum-Flux-Residual          L2-NORM 
          0                 1           2             1    1     1      -0.2198780495E-01       2    7    1        -0.1328684421E-02      0.2586591805E-01
          0                 2           2             3    1     1       0.2080129682E-02       2    1    1         0.1328670379E-03      0.2511796223E-02
          0                 3           2             4    1     1      -0.1775366394E-03       2    1    1        -0.1195818604E-04      0.2304070612E-03
          0                 4           1             4    1     1       0.1352300638E-04       2    1    1         0.9578488509E-06      0.1928178403E-04
          0                 5           1             4    1     1      -0.9061248221E-06      34    4    1         0.8490855663E-07      0.1424990380E-05

    ------------------------------------------------
       NWT REQUIRED            5 OUTER ITERATIONS 
       AND A TOTAL OF          8 INNER ITERATIONS.
    ------------------------------------------------

 NO OUTPUT CONTROL FOR STRESS PERIOD   29   TIME STEP   14
 
 WELLS WITH REDUCED PUMPING FOR STRESS PERIOD    29 TIME STEP    14
   LAY   ROW   COL         APPL.Q          ACT.Q        GW-HEAD       CELL-BOT
     1     3    50  -0.670014E+00  -0.412641E+00   0.647221E-03   0.000000E+00
     1     5    55  -0.670014E+00  -0.320523E+00   0.538999E-03   0.000000E+00
 
 
 SOLVING FOR HEAD 
                                                   Max.-Head-Change                         Max.-Flux-Residual
  Residual-Control   Outer-Iter.   Inner-Iter.     Column Row Layer    Maximum-Head-Change  Column Row Layer    Maximum-Flux-Residual          L2-NORM 
          0                 1           2             1    1     1      -0.2417542317E-01       1    1    1        -0.1328371899E-02      0.2582358923E-01
          0                 2           2             2    1     1       0.2281782342E-02       1    1    1         0.1328355755E-03      0.2507651430E-02
          0                 3           2             3    1     1      -0.1942189154E-03       1    1    1        -0.1195537781E-04      0.2301974399E-03
          0                 4           1             4    1     1       0.1474787698E-04      34    4    1        -0.1051451626E-05      0.1930282609E-04
          0                 5           1             4    1     1      -0.9843925252E-06      34    4    1         0.9466172202E-07      0.1430266538E-05

    ------------------------------------------------
       NWT REQUIRED            5 OUTER ITERATIONS 
       AND A TOTAL OF          8 INNER ITERATIONS.
    ------------------------------------------------

 NO OUTPUT CONTROL FOR STRESS PERIOD   29   TIME STEP   15
 
 WELLS WITH REDUCED PUMPING FOR STRESS PERIOD    29 TIME STEP    15
   LAY   ROW   COL         APPL.Q          ACT.Q        GW-HEAD       CELL-BOT
     1     3    50  -0.670014E+00  -0.412359E+00   0.646899E-03   0.000000E+00
     1     5    55  -0.670014E+00  -0.320247E+00   0.538693E-03   0.000000E+00
 
 
 SOLVING FOR HEAD 
                                                   Max.-Head-Change                         Max.-Flux-Residual
  Residual-Control   Outer-Iter.   Inner-Iter.     Column Row Layer    Maximum-Head-Change  Column Row Layer    Maximum-Flux-Residual          L2-NORM 
          0                 1           2             1    1     1      -0.2658001792E-01       1    1    1        -0.1328024368E-02      0.2577689132E-01
          0                 2           2             1    1     1       0.2503086365E-02       1    1    1         0.1328005802E-03      0.2503723409E-02
          0                 3           2             3    1     1      -0.2124850436E-03       1    1    1        -0.1195225397E-04      0.2300023105E-03
          0                 4           1             4    1     1       0.1608450465E-04      71    4    1        -0.1100912387E-05      0.1932272021E-04
          0                 5           1             4    1     1      -0.1069192770E-05      34    4    1         0.9722917227E-07      0.1435148437E-05
          0                 6           1             1    1     1       0.6144717213E-07      34    4    1        -0.6847033163E-08      0.9171447597E-07

    ------------------------------------------------
       NWT REQUIRED            6 OUTER ITERATIONS 
       AND A TOTAL OF          9 INNER ITERATIONS.
    ------------------------------------------------

 NO OUTPUT CONTROL FOR STRESS PERIOD   29   TIME STEP   16
 
 WELLS WITH REDUCED PUMPING FOR STRESS PERIOD    29 TIME STEP    16
   LAY   ROW   COL         APPL.Q          ACT.Q        GW-HEAD       CELL-BOT
     1     3    50  -0.670014E+00  -0.412050E+00   0.646546E-03   0.000000E+00
     1     5    55  -0.670014E+00  -0.319943E+00   0.538357E-03   0.000000E+00
 
 
 SOLVING FOR HEAD 
                                                   Max.-Head-Change                         Max.-Flux-Residual
  Residual-Control   Outer-Iter.   Inner-Iter.     Column Row Layer    Maximum-Head-Change  Column Row Layer    Maximum-Flux-Residual          L2-NORM 
          0                 1           2             1    1     1      -0.2922297881E-01       1    7    1        -0.1327636539E-02      0.2572511034E-01
          0                 2           2             1    1     1       0.2745972686E-02       1    7    1         0.1327615251E-03      0.2498636796E-02
          0                 3           2             2    1     1      -0.2324911820E-03       1    7    1        -0.1194876782E-04      0.2296704171E-03
          0                 4           1             4    1     1       0.1754376378E-04      35    4    1        -0.1107555116E-05      0.1933031399E-04
          0                 5           1             4    1     1      -0.1161026201E-05      35    4    1         0.9813154911E-07      0.1438887823E-05
          0                 6           1             1    1     1       0.6640747988E-07       2    4    1        -0.6881020198E-08      0.9220854586E-07

    ------------------------------------------------
       NWT REQUIRED            6 OUTER ITERATIONS 
       AND A TOTAL OF          9 INNER ITERATIONS.
    ------------------------------------------------

 NO OUTPUT CONTROL FOR STRESS PERIOD   29   TIME STEP   17
 
 WELLS WITH REDUCED PUMPING FOR STRESS PERIOD    29 TIME STEP    17
   LAY   ROW   COL         APPL.Q          ACT.Q        GW-HEAD       CELL-BOT
     1     3    50  -0.670029E+00  -0.411712E+00   0.646150E-03   0.000000E+00
     1     5    55  -0.670029E+00  -0.319610E+00   0.537981E-03   0.000000E+00
 
 
 SOLVING FOR HEAD 
                                                   Max.-Head-Change                         Max.-Flux-Residual
  Residual-Control   Outer-Iter.   Inner-Iter.     Column Row Layer    Maximum-Head-Change  Column Row Layer    Maximum-Flux-Residual          L2-NORM 
          0                 1           2             1    1     1      -0.3212774093E-01       1    7    1        -0.1327202742E-02      0.2566995108E-01
          0                 2           2             1    1     1       0.3012560627E-02       1    7    1         0.1327178407E-03      0.2493464726E-02
          0                 3           2             1    1     1      -0.2544097000E-03       1    7    1        -0.1194486836E-04      0.2293445994E-03
          0                 4           1             4    1     1       0.1913756247E-04      36    4    1        -0.1098100137E-05      0.1933789189E-04
          0                 5           1             1    1     1      -0.1260398047E-05      36    4    1         0.9814514712E-07      0.1442194407E-05
          0                 6           1             1    1     1       0.7171490283E-07      34    4    1        -0.7044652861E-08      0.9264733026E-07

    ------------------------------------------------
       NWT REQUIRED            6 OUTER ITERATIONS 
       AND A TOTAL OF          9 INNER ITERATIONS.
    ------------------------------------------------

 NO OUTPUT CONTROL FOR STRESS PERIOD   29   TIME STEP   18
 
 WELLS WITH REDUCED PUMPING FOR STRESS PERIOD    29 TIME STEP    18
   LAY   ROW   COL         APPL.Q          ACT.Q        GW-HEAD       CELL-BOT
     1     3    50  -0.670022E+00  -0.411332E+00   0.645721E-03   0.000000E+00
     1     5    55  -0.670022E+00  -0.319227E+00   0.537562E-03   0.000000E+00
 
 
 SOLVING FOR HEAD 
                                                   Max.-Head-Change                         Max.-Flux-Residual
  Residual-Control   Outer-Iter.   Inner-Iter.     Column Row Layer    Maximum-Head-Change  Column Row Layer    Maximum-Flux-Residual          L2-NORM 
          0                 1           2             1    1     1      -0.3532001753E-01       1    7    1        -0.1326718514E-02      0.2561141393E-01
          0                 2           2             1    1     1       0.3305184476E-02       1    7    1         0.1326690771E-03      0.2487783840E-02
          0                 3           2             1    1     1      -0.2784288458E-03       1    7    1        -0.1194051549E-04      0.2289783160E-03
          0                 4           1             1    1     1       0.2087913124E-04      69    4    1        -0.1081974517E-05      0.1934358085E-04
          0                 5           1             1    1     1      -0.1367859746E-05      34    4    1         0.9952541191E-07      0.1445008473E-05
          0                 6           1             1    1     1       0.7737411579E-07      34    4    1        -0.7246349298E-08      0.9302951762E-07

    ------------------------------------------------
       NWT REQUIRED            6 OUTER ITERATIONS 
       AND A TOTAL OF          9 INNER ITERATIONS.
    ------------------------------------------------

 NO OUTPUT CONTROL FOR STRESS PERIOD   29   TIME STEP   19
 
 WELLS WITH REDUCED PUMPING FOR STRESS PERIOD    29 TIME STEP    19
   LAY   ROW   COL         APPL.Q          ACT.Q        GW-HEAD       CELL-BOT
     1     3    50  -0.669985E+00  -0.410927E+00   0.645284E-03   0.000000E+00
     1     5    55  -0.669985E+00  -0.318844E+00   0.537157E-03   0.000000E+00
 
 
 SOLVING FOR HEAD 
                                                   Max.-Head-Change                         Max.-Flux-Residual
  Residual-Control   Outer-Iter.   Inner-Iter.     Column Row Layer    Maximum-Head-Change  Column Row Layer    Maximum-Flux-Residual          L2-NORM 
          0                 1           2             1    1     1      -0.3882798949E-01       1    7    1        -0.1326178841E-02      0.2555101295E-01
          0                 2           2             1    1     1       0.3626403536E-02       1    7    1         0.1326147293E-03      0.2481901191E-02
          0                 3           2             1    1     1      -0.3047543438E-03       1    7    1        -0.1193566408E-04      0.2285551607E-03
          0                 4           1             1    1     1       0.2278312728E-04      68    4    1        -0.1103446202E-05      0.1933933440E-04
          0                 5           1             1    1     1      -0.1483737969E-05      34    4    1         0.1015898086E-06      0.1446203051E-05
          0                 6           1             1    1     1       0.8337660553E-07      34    4    1        -0.7439238559E-08      0.9325947305E-07

    ------------------------------------------------
       NWT REQUIRED            6 OUTER ITERATIONS 
       AND A TOTAL OF          9 INNER ITERATIONS.
    ------------------------------------------------

 NO OUTPUT CONTROL FOR STRESS PERIOD   29   TIME STEP   20
 
 WELLS WITH REDUCED PUMPING FOR STRESS PERIOD    29 TIME STEP    20
   LAY   ROW   COL         APPL.Q          ACT.Q        GW-HEAD       CELL-BOT
     1     3    50  -0.669980E+00  -0.410500E+00   0.644801E-03   0.000000E+00
     1     5    55  -0.669980E+00  -0.318422E+00   0.536693E-03   0.000000E+00
 
 
 SOLVING FOR HEAD 
                                                   Max.-Head-Change                         Max.-Flux-Residual
  Residual-Control   Outer-Iter.   Inner-Iter.     Column Row Layer    Maximum-Head-Change  Column Row Layer    Maximum-Flux-Residual          L2-NORM 
          0                 1           2             1    1     1      -0.4268252862E-01       1    7    1        -0.1325578020E-02      0.2548853435E-01
          0                 2           2             1    1     1       0.3979021637E-02       1    1    1         0.1325542229E-03      0.2475629895E-02
          0                 3           2             1    1     1      -0.3336130618E-03       1    7    1        -0.1193026281E-04      0.2280084320E-03
          0                 4           1             1    1     1       0.2486453912E-04      67    4    1        -0.1115344693E-05      0.1931736622E-04
          0                 5           1             1    1     1      -0.1608306060E-05      70    4    1         0.9920389399E-07      0.1445047990E-05
          0                 6           1             1    1     1       0.8969763893E-07       7    4    1        -0.7357691345E-08      0.9329097740E-07

    ------------------------------------------------
       NWT REQUIRED            6 OUTER ITERATIONS 
       AND A TOTAL OF          9 INNER ITERATIONS.
    ------------------------------------------------

 NO OUTPUT CONTROL FOR STRESS PERIOD   29   TIME STEP   21
 
 WELLS WITH REDUCED PUMPING FOR STRESS PERIOD    29 TIME STEP    21
   LAY   ROW   COL         APPL.Q          ACT.Q        GW-HEAD       CELL-BOT
     1     3    50  -0.670000E+00  -0.410022E+00   0.644242E-03   0.000000E+00
     1     5    55  -0.670000E+00  -0.317951E+00   0.536163E-03   0.000000E+00
 
 
 SOLVING FOR HEAD 
                                                   Max.-Head-Change                         Max.-Flux-Residual
  Residual-Control   Outer-Iter.   Inner-Iter.     Column Row Layer    Maximum-Head-Change  Column Row Layer    Maximum-Flux-Residual          L2-NORM 
          0                 1           2             1    1     1      -0.4691743634E-01       1    7    1        -0.1324909665E-02      0.2542143435E-01
          0                 2           2             1    1     1       0.4366107692E-02       1    1    1         0.1324869148E-03      0.2469348258E-02
          0                 3           2             1    1     1      -0.3652533001E-03       1    7    1        -0.1192425423E-04      0.2275211319E-03
          0                 4           1             1    1     1       0.2714012030E-04      66    4    1        -0.1104702248E-05      0.1930076491E-04
          0                 5           1             1    1     1      -0.1741645453E-05      70    4    1         0.1016124402E-06      0.1443242110E-05
          0                 6           1             1    1     1       0.9628698800E-07       7    4    1        -0.7465274621E-08      0.9320742117E-07

    ------------------------------------------------
       NWT REQUIRED            6 OUTER ITERATIONS 
       AND A TOTAL OF          9 INNER ITERATIONS.
    ------------------------------------------------

 NO OUTPUT CONTROL FOR STRESS PERIOD   29   TIME STEP   22
 
 WELLS WITH REDUCED PUMPING FOR STRESS PERIOD    29 TIME STEP    22
   LAY   ROW   COL         APPL.Q          ACT.Q        GW-HEAD       CELL-BOT
     1     3    50  -0.669995E+00  -0.409496E+00   0.643645E-03   0.000000E+00
     1     5    55  -0.669995E+00  -0.317434E+00   0.535593E-03   0.000000E+00
 
 
 SOLVING FOR HEAD 
                                                   Max.-Head-Change                         Max.-Flux-Residual
  Residual-Control   Outer-Iter.   Inner-Iter.     Column Row Layer    Maximum-Head-Change  Column Row Layer    Maximum-Flux-Residual          L2-NORM 
          0                 1           2             1    1     1      -0.5156970040E-01       1    7    1        -0.1324166670E-02      0.2541336278E-01
          0                 2           2             1    1     1       0.4791016162E-02       1    1    1         0.1324120892E-03      0.2469953532E-02
          0                 3           2             1    1     1      -0.3999463112E-03       1    7    1        -0.1191757438E-04      0.2276979439E-03
          0                 4           1             1    1     1       0.2962784852E-04      35    4    1        -0.1085290345E-05      0.1933761199E-04
          0                 5           1             1    1     1      -0.1883500739E-05      70    4    1         0.1033120398E-06      0.1443654935E-05
          0                 6           1             1    1     1       0.1030674364E-06      70    4    1        -0.7629984644E-08      0.9315223390E-07

    ------------------------------------------------
       NWT REQUIRED            6 OUTER ITERATIONS 
       AND A TOTAL OF          9 INNER ITERATIONS.
    ------------------------------------------------

 NO OUTPUT CONTROL FOR STRESS PERIOD   29   TIME STEP   23
 
 WELLS WITH REDUCED PUMPING FOR STRESS PERIOD    29 TIME STEP    23
   LAY   ROW   COL         APPL.Q          ACT.Q        GW-HEAD       CELL-BOT
     1     3    50  -0.670012E+00  -0.408919E+00   0.642977E-03   0.000000E+00
     1     5    55  -0.670012E+00  -0.316868E+00   0.534959E-03   0.000000E+00
 
 
 SOLVING FOR HEAD 
                                                   Max.-Head-Change                         Max.-Flux-Residual
  Residual-Control   Outer-Iter.   Inner-Iter.     Column Row Layer    Maximum-Head-Change  Column Row Layer    Maximum-Flux-Residual          L2-NORM 
          0                 1           3            18    7     1      -0.5538057832E-01       1    7    1        -0.1323341135E-02      0.2508237771E-01
          0                 2           2            19    7     1       0.5128499665E-02       1    7    1         0.1323026744E-03      0.2463545602E-02
          0                 3           2            19    7     1      -0.4274600652E-03       1    7    1        -0.1190804994E-04      0.2298554592E-03
          0                 4           1            20    7     1       0.3160275605E-04       7    4    1        -0.1353269926E-05      0.1971509147E-04
          0                 5           1            21    7     1      -0.1982121323E-05       7    4    1         0.1274360777E-06      0.1476299191E-05
          0                 6           1            23    7     1       0.1072718452E-06       7    4    1        -0.9314465643E-08      0.9529886339E-07

    ------------------------------------------------
       NWT REQUIRED            6 OUTER ITERATIONS 
       AND A TOTAL OF         10 INNER ITERATIONS.
    ------------------------------------------------

 NO OUTPUT CONTROL FOR STRESS PERIOD   29   TIME STEP   24
 
 WELLS WITH REDUCED PUMPING FOR STRESS PERIOD    29 TIME STEP    24
   LAY   ROW   COL         APPL.Q          ACT.Q        GW-HEAD       CELL-BOT
     1     3    50  -0.669997E+00  -0.408291E+00   0.642271E-03   0.000000E+00
     1     5    55  -0.669997E+00  -0.316251E+00   0.534284E-03   0.000000E+00
 
 
 SOLVING FOR HEAD 
                                                   Max.-Head-Change                         Max.-Flux-Residual
  Residual-Control   Outer-Iter.   Inner-Iter.     Column Row Layer    Maximum-Head-Change  Column Row Layer    Maximum-Flux-Residual          L2-NORM 
          0                 1           3            25    7     1      -0.5841610574E-01      18    7    1        -0.1292390629E-02      0.2439968556E-01
          0                 2           2            25    7     1       0.5406034953E-02      18    7    1         0.1291586079E-03      0.2428094748E-02
          0                 3           2            26    7     1      -0.4501741361E-03      17    4    1         0.1419297626E-04      0.2289499952E-03
          0                 4           1            26    7     1       0.3325959814E-04      17    4    1        -0.1568449310E-05      0.1976238423E-04
          0                 5           1            27    7     1      -0.2080360254E-05      17    4    1         0.1374296943E-06      0.1478668818E-05
          0                 6           1            73    7     1       0.1133350999E-06      18    4    1        -0.9671204282E-08      0.9526161260E-07

    ------------------------------------------------
       NWT REQUIRED            6 OUTER ITERATIONS 
       AND A TOTAL OF         10 INNER ITERATIONS.
    ------------------------------------------------

 NO OUTPUT CONTROL FOR STRESS PERIOD   29   TIME STEP   25
 
 WELLS WITH REDUCED PUMPING FOR STRESS PERIOD    29 TIME STEP    25
   LAY   ROW   COL         APPL.Q          ACT.Q        GW-HEAD       CELL-BOT
     1     3    50  -0.670007E+00  -0.407604E+00   0.641482E-03   0.000000E+00
     1     5    55  -0.670007E+00  -0.315578E+00   0.533534E-03   0.000000E+00
 
 
 SOLVING FOR HEAD 
                                                   Max.-Head-Change                         Max.-Flux-Residual
  Residual-Control   Outer-Iter.   Inner-Iter.     Column Row Layer    Maximum-Head-Change  Column Row Layer    Maximum-Flux-Residual          L2-NORM 
          0                 1           3            30    7     1      -0.6066329816E-01      25    1    1        -0.1239283720E-02      0.2349866166E-01
          0                 2           2            30    7     1       0.5567037246E-02      25    1    1         0.1238397141E-03      0.2316499734E-02
          0                 3           2            31    7     1      -0.4599330079E-03      25    4    1         0.1384998911E-04      0.2178409807E-03
          0                 4           1            31    7     1       0.3381776353E-04      25    4    1        -0.1523284904E-05      0.1885041051E-04
          0                 5           1            72    7     1      -0.2167268216E-05      25    4    1         0.1304636648E-06      0.1408680766E-05
          0                 6           1            71    7     1       0.1209515386E-06      24    4    1        -0.9262596024E-08      0.9081391850E-07

    ------------------------------------------------
       NWT REQUIRED            6 OUTER ITERATIONS 
       AND A TOTAL OF         10 INNER ITERATIONS.
    ------------------------------------------------

 NO OUTPUT CONTROL FOR STRESS PERIOD   29   TIME STEP   26
 
 WELLS WITH REDUCED PUMPING FOR STRESS PERIOD    29 TIME STEP    26
   LAY   ROW   COL         APPL.Q          ACT.Q        GW-HEAD       CELL-BOT
     1     3    50  -0.670004E+00  -0.406854E+00   0.640631E-03   0.000000E+00
     1     5    55  -0.670004E+00  -0.314845E+00   0.532725E-03   0.000000E+00
 
 
 SOLVING FOR HEAD 
                                                   Max.-Head-Change                         Max.-Flux-Residual
  Residual-Control   Outer-Iter.   Inner-Iter.     Column Row Layer    Maximum-Head-Change  Column Row Layer    Maximum-Flux-Residual          L2-NORM 
          0                 1           3             5    1     1      -0.6597512923E-01      30    7    1        -0.1170810201E-02      0.2291903368E-01
          0                 2           2             5    1     1       0.6013498795E-02      30    1    1         0.1169832018E-03      0.2255018607E-02
          0                 3           2             5    1     1      -0.4917988028E-03      30    4    1         0.1442007794E-04      0.2122622295E-03
          0                 4           1             4    1     1       0.3551757274E-04      30    4    1        -0.1557873667E-05      0.1842045897E-04
          0                 5           1            70    7     1      -0.2259943206E-05      30    4    1         0.1352633987E-06      0.1370623331E-05
          0                 6           1            70    7     1       0.1252216635E-06      30    4    1        -0.9504857346E-08      0.8817344730E-07

    ------------------------------------------------
       NWT REQUIRED            6 OUTER ITERATIONS 
       AND A TOTAL OF         10 INNER ITERATIONS.
    ------------------------------------------------

 NO OUTPUT CONTROL FOR STRESS PERIOD   29   TIME STEP   27
 
 WELLS WITH REDUCED PUMPING FOR STRESS PERIOD    29 TIME STEP    27
   LAY   ROW   COL         APPL.Q          ACT.Q        GW-HEAD       CELL-BOT
     1     3    50  -0.670001E+00  -0.406049E+00   0.639716E-03   0.000000E+00
     1     5    55  -0.670001E+00  -0.314055E+00   0.531853E-03   0.000000E+00
 
 
 SOLVING FOR HEAD 
                                                   Max.-Head-Change                         Max.-Flux-Residual
  Residual-Control   Outer-Iter.   Inner-Iter.     Column Row Layer    Maximum-Head-Change  Column Row Layer    Maximum-Flux-Residual          L2-NORM 
          0                 1           3             4    1     1      -0.7245540063E-01       5    7    1        -0.1158222420E-02      0.2242636631E-01
          0                 2           2             5    1     1       0.6593880906E-02       5    7    1         0.1158142236E-03      0.2205242774E-02
          0                 3           2             4    1     1      -0.5381518160E-03      71    4    1         0.1412364295E-04      0.2078012226E-03
          0                 4           1             4    1     1       0.3870729294E-04      34    4    1        -0.1533832094E-05      0.1807994375E-04
          0                 5           1            67    1     1      -0.2274113155E-05      34    4    1         0.1329988297E-06      0.1336371113E-05
          0                 6           1            67    1     1       0.1260554658E-06      34    4    1        -0.9323837702E-08      0.8567525689E-07

    ------------------------------------------------
       NWT REQUIRED            6 OUTER ITERATIONS 
       AND A TOTAL OF         10 INNER ITERATIONS.
    ------------------------------------------------

 NO OUTPUT CONTROL FOR STRESS PERIOD   29   TIME STEP   28
 
 WELLS WITH REDUCED PUMPING FOR STRESS PERIOD    29 TIME STEP    28
   LAY   ROW   COL         APPL.Q          ACT.Q        GW-HEAD       CELL-BOT
     1     3    50  -0.669988E+00  -0.405168E+00   0.638724E-03   0.000000E+00
     1     5    55  -0.669988E+00  -0.313193E+00   0.530905E-03   0.000000E+00
 
 
 SOLVING FOR HEAD 
                                                   Max.-Head-Change                         Max.-Flux-Residual
  Residual-Control   Outer-Iter.   Inner-Iter.     Column Row Layer    Maximum-Head-Change  Column Row Layer    Maximum-Flux-Residual          L2-NORM 
          0                 1           3             3    1     1      -0.7959471816E-01       4    1    1        -0.1156501190E-02      0.2199500579E-01
          0                 2           2             4    1     1       0.7233443809E-02       4    1    1         0.1156415759E-03      0.2161028858E-02
          0                 3           2             4    1     1      -0.5892337342E-03      38    4    1         0.1506881955E-04      0.2038032143E-03
          0                 4           1             3    1     1       0.4220301947E-04      38    4    1        -0.1566650734E-05      0.1776284870E-04
          0                 5           1             1    1     1      -0.2344580364E-05      38    4    1         0.1317964795E-06      0.1300357407E-05
          0                 6           1            65    1     1       0.1255878812E-06      68    4    1        -0.9129567324E-08      0.8298088691E-07

    ------------------------------------------------
       NWT REQUIRED            6 OUTER ITERATIONS 
       AND A TOTAL OF         10 INNER ITERATIONS.
    ------------------------------------------------

 NO OUTPUT CONTROL FOR STRESS PERIOD   29   TIME STEP   29
 
 WELLS WITH REDUCED PUMPING FOR STRESS PERIOD    29 TIME STEP    29
   LAY   ROW   COL         APPL.Q          ACT.Q        GW-HEAD       CELL-BOT
     1     3    50  -0.670007E+00  -0.404217E+00   0.637630E-03   0.000000E+00
     1     5    55  -0.670007E+00  -0.312261E+00   0.529865E-03   0.000000E+00
 
 
 SOLVING FOR HEAD 
                                                   Max.-Head-Change                         Max.-Flux-Residual
  Residual-Control   Outer-Iter.   Inner-Iter.     Column Row Layer    Maximum-Head-Change  Column Row Layer    Maximum-Flux-Residual          L2-NORM 
          0                 1           3             1    1     1      -0.8744323337E-01       3    7    1        -0.1155094181E-02      0.2162310989E-01
          0                 2           2             3    1     1       0.7935897138E-02       3    7    1         0.1155000267E-03      0.2120264149E-02
          0                 3           2             4    1     1      -0.6452571609E-03      41    4    1         0.1372031104E-04      0.1998477763E-03
          0                 4           1             3    1     1       0.4600699352E-04      64    4    1        -0.1413931371E-05      0.1743770311E-04
          0                 5           1             1    1     1      -0.2448622383E-05      64    4    1         0.1188460450E-06      0.1262031278E-05
          0                 6           1            71    7     1       0.1263904310E-06      64    4    1        -0.8205579327E-08      0.8020212644E-07

    ------------------------------------------------
       NWT REQUIRED            6 OUTER ITERATIONS 
       AND A TOTAL OF         10 INNER ITERATIONS.
    ------------------------------------------------

 NO OUTPUT CONTROL FOR STRESS PERIOD   29   TIME STEP   30
 
 WELLS WITH REDUCED PUMPING FOR STRESS PERIOD    29 TIME STEP    30
   LAY   ROW   COL         APPL.Q          ACT.Q        GW-HEAD       CELL-BOT
     1     3    50  -0.669996E+00  -0.403248E+00   0.636537E-03   0.000000E+00
     1     5    55  -0.669996E+00  -0.311305E+00   0.528811E-03   0.000000E+00
 



 STREAM LISTING     PERIOD     29   STEP       30

 LAYER ROW COL. STREAM  RCH.   FLOW INTO    STREAM     FLOW OUT OF   OVRLND.    DIRECT     STREAM      STREAM      STREAM     STREAM  STREAMBED   FLOW TO   CHNG. UNSAT. 
                SEG.NO.  NO.   STRM. RCH.    LOSS       STRM. RCH.   RUNOFF     PRECIP       ET         HEAD        DEPTH      WIDTH  CONDCTNC.   WAT. TAB.

   1    4    1     1     1    5.6800E+00  1.8915E-03   5.6781E+00  0.000E+00  0.000E+00  0.000E+00  1.41652E+02  1.802E+00  3.968E+00  8.217E-04  1.862E-03  2.899E-05
   1    4    2     1     2    5.6781E+00  1.8910E-03   5.6762E+00  0.000E+00  0.000E+00  0.000E+00  1.41352E+02  1.802E+00  3.968E+00  8.216E-04  1.862E-03  2.903E-05
   1    4    3     1     3    5.6762E+00  1.8905E-03   5.6743E+00  0.000E+00  0.000E+00  0.000E+00  1.41051E+02  1.801E+00  3.968E+00  8.215E-04  1.861E-03  2.906E-05
   1    4    4     1     4    5.6743E+00  1.8900E-03   5.6724E+00  0.000E+00  0.000E+00  0.000E+00  1.40751E+02  1.801E+00  3.967E+00  8.214E-04  1.861E-03  2.909E-05
   1    4    5     1     5    5.6724E+00  1.8895E-03   5.6705E+00  0.000E+00  0.000E+00  0.000E+00  1.40451E+02  1.801E+00  3.967E+00  8.213E-04  1.860E-03  2.911E-05
   1    4    6     1     6    5.6705E+00  1.8890E-03   5.6687E+00  0.000E+00  0.000E+00  0.000E+00  1.40150E+02  1.800E+00  3.967E+00  8.212E-04  1.860E-03  2.912E-05
   1    4    7     1     7    5.6687E+00  1.8885E-03   5.6668E+00  0.000E+00  0.000E+00  0.000E+00  1.39850E+02  1.800E+00  3.966E+00  8.211E-04  1.859E-03  2.911E-05
   1    4    8     1     8    5.6668E+00  1.8880E-03   5.6649E+00  0.000E+00  0.000E+00  0.000E+00  1.39550E+02  1.800E+00  3.966E+00  8.210E-04  1.859E-03  2.910E-05
   1    4    9     1     9    5.6649E+00  1.8876E-03   5.6630E+00  0.000E+00  0.000E+00  0.000E+00  1.39249E+02  1.800E+00  3.965E+00  8.209E-04  1.858E-03  2.907E-05
   1    4   10     1    10    5.6630E+00  1.8871E-03   5.6611E+00  0.000E+00  0.000E+00  0.000E+00  1.38949E+02  1.799E+00  3.965E+00  8.208E-04  1.858E-03  2.902E-05
   1    4   11     1    11    5.6611E+00  1.8866E-03   5.6592E+00  0.000E+00  0.000E+00  0.000E+00  1.38649E+02  1.799E+00  3.965E+00  8.207E-04  1.858E-03  2.896E-05
   1    4   12     1    12    5.6592E+00  1.8861E-03   5.6573E+00  0.000E+00  0.000E+00  0.000E+00  1.38349E+02  1.799E+00  3.964E+00  8.206E-04  1.857E-03  2.888E-05
   1    4   13     1    13    5.6573E+00  1.8856E-03   5.6554E+00  0.000E+00  0.000E+00  0.000E+00  1.38048E+02  1.798E+00  3.964E+00  8.205E-04  1.857E-03  2.878E-05
   1    4   14     1    14    5.6554E+00  1.8851E-03   5.6536E+00  0.000E+00  0.000E+00  0.000E+00  1.37748E+02  1.798E+00  3.964E+00  8.203E-04  1.856E-03  2.866E-05
   1    4   15     1    15    5.6536E+00  1.8846E-03   5.6517E+00  0.000E+00  0.000E+00  0.000E+00  1.37448E+02  1.798E+00  3.963E+00  8.202E-04  1.856E-03  2.852E-05
   1    4   16     1    16    5.6517E+00  1.8842E-03   5.6498E+00  0.000E+00  0.000E+00  0.000E+00  1.37147E+02  1.797E+00  3.963E+00  8.201E-04  1.856E-03  2.836E-05
   1    4   17     1    17    5.6498E+00  1.8837E-03   5.6479E+00  0.000E+00  0.000E+00  0.000E+00  1.36847E+02  1.797E+00  3.963E+00  8.200E-04  1.855E-03  2.817E-05
   1    4   18     1    18    5.6479E+00  1.8832E-03   5.6460E+00  0.000E+00  0.000E+00  0.000E+00  1.36547E+02  1.797E+00  3.962E+00  8.199E-04  1.855E-03  2.795E-05
   1    4   19     1    19    5.6460E+00  1.8827E-03   5.6441E+00  0.000E+00  0.000E+00  0.000E+00  1.36246E+02  1.796E+00  3.962E+00  8.198E-04  1.855E-03  2.770E-05
   1    4   20     1    20    5.6441E+00  1.8822E-03   5.6423E+00  0.000E+00  0.000E+00  0.000E+00  1.35946E+02  1.796E+00  3.961E+00  8.197E-04  1.855E-03  2.742E-05
   1    4   21     1    21    5.6423E+00  1.8817E-03   5.6404E+00  0.000E+00  0.000E+00  0.000E+00  1.35646E+02  1.796E+00  3.961E+00  8.196E-04  1.855E-03  2.711E-05
   1    4   22     1    22    5.6404E+00  1.8812E-03   5.6385E+00  0.000E+00  0.000E+00  0.000E+00  1.35345E+02  1.795E+00  3.961E+00  8.195E-04  1.854E-03  2.676E-05
   1    4   23     1    23    5.6385E+00  1.8808E-03   5.6366E+00  0.000E+00  0.000E+00  0.000E+00  1.35045E+02  1.795E+00  3.960E+00  8.194E-04  1.854E-03  2.636E-05
   1    4   24     1    24    5.6366E+00  1.8803E-03   5.6347E+00  0.000E+00  0.000E+00  0.000E+00  1.34745E+02  1.795E+00  3.960E+00  8.193E-04  1.854E-03  2.592E-05
   1    4   25     1    25    5.6347E+00  1.8798E-03   5.6329E+00  0.000E+00  0.000E+00  0.000E+00  1.34445E+02  1.795E+00  3.960E+00  8.192E-04  1.854E-03  2.543E-05
   1    4   26     1    26    5.6329E+00  1.8793E-03   5.6310E+00  0.000E+00  0.000E+00  0.000E+00  1.34144E+02  1.794E+00  3.959E+00  8.191E-04  1.854E-03  2.489E-05
   1    4   27     1    27    5.6310E+00  1.8788E-03   5.6291E+00  0.000E+00  0.000E+00  0.000E+00  1.33844E+02  1.794E+00  3.959E+00  8.190E-04  1.855E-03  2.428E-05
   1    4   28     1    28    5.6291E+00  1.8783E-03   5.6272E+00  0.000E+00  0.000E+00  0.000E+00  1.33544E+02  1.794E+00  3.958E+00  8.189E-04  1.855E-03  2.361E-05
   1    4   29     1    29    5.6272E+00  1.8779E-03   5.6253E+00  0.000E+00  0.000E+00  0.000E+00  1.33243E+02  1.793E+00  3.958E+00  8.188E-04  1.877E-03  1.111E-06
   1    4   30     1    30    5.6253E+00  1.8774E-03   5.6235E+00  0.000E+00  0.000E+00  0.000E+00  1.32943E+02  1.793E+00  3.958E+00  8.187E-04  1.885E-03 -7.408E-06
   1    4   31     1    31    5.6235E+00  1.8769E-03   5.6216E+00  0.000E+00  0.000E+00  0.000E+00  1.32643E+02  1.793E+00  3.957E+00  8.186E-04  1.885E-03 -8.341E-06
   1    4   32     1    32    5.6216E+00  1.8764E-03   5.6197E+00  0.000E+00  0.000E+00  0.000E+00  1.32342E+02  1.792E+00  3.957E+00  8.185E-04  1.886E-03 -9.366E-06
   1    4   33     1    33    5.6197E+00  1.8759E-03   5.6178E+00  0.000E+00  0.000E+00  0.000E+00  1.32042E+02  1.792E+00  3.957E+00  8.184E-04  1.886E-03 -1.048E-05
   1    4   34     1    34    5.6178E+00  1.8754E-03   5.6160E+00  0.000E+00  0.000E+00  0.000E+00  1.31742E+02  1.792E+00  3.956E+00  8.183E-04  1.888E-03 -1.270E-05
   1    4   35     1    35    5.6160E+00  1.8749E-03   5.6141E+00  0.000E+00  0.000E+00  0.000E+00  1.31441E+02  1.791E+00  3.956E+00  8.182E-04  1.889E-03 -1.428E-05
   1    4   36     1    36    5.6141E+00  1.8745E-03   5.6122E+00  0.000E+00  0.000E+00  0.000E+00  1.31141E+02  1.791E+00  3.955E+00  8.181E-04  1.890E-03 -1.591E-05
   1    4   37     1    37    5.6122E+00  1.8740E-03   5.6103E+00  0.000E+00  0.000E+00  0.000E+00  1.30841E+02  1.791E+00  3.955E+00  8.180E-04  1.956E-03 -8.163E-05
   1    4   38     1    38    5.6103E+00  1.8735E-03   5.6085E+00  0.000E+00  0.000E+00  0.000E+00  1.30541E+02  1.791E+00  3.955E+00  8.179E-04  1.958E-03 -8.427E-05
   1    4   39     1    39    5.6085E+00  1.8730E-03   5.6066E+00  0.000E+00  0.000E+00  0.000E+00  1.30240E+02  1.790E+00  3.954E+00  8.178E-04  1.962E-03 -8.856E-05
   1    4   40     1    40    5.6066E+00  1.8725E-03   5.6047E+00  0.000E+00  0.000E+00  0.000E+00  1.29940E+02  1.790E+00  3.954E+00  8.177E-04  1.966E-03 -9.319E-05
   1    4   41     1    41    5.6047E+00  1.8720E-03   5.6029E+00  0.000E+00  0.000E+00  0.000E+00  1.29640E+02  1.790E+00  3.954E+00  8.176E-04  1.970E-03 -9.748E-05
   1    4   42     1    42    5.6029E+00  1.8716E-03   5.6010E+00  0.000E+00  0.000E+00  0.000E+00  1.29339E+02  1.789E+00  3.953E+00  8.175E-04  1.666E-03  2.057E-04
   1    4   43     1    43    5.6010E+00  1.8711E-03   5.5991E+00  0.000E+00  0.000E+00  0.000E+00  1.29039E+02  1.789E+00  3.953E+00  8.174E-04  1.286E-03  5.849E-04
   1    4   44     1    44    5.5991E+00  1.8706E-03   5.5972E+00  0.000E+00  0.000E+00  0.000E+00  1.28739E+02  1.789E+00  3.953E+00  8.173E-04  9.034E-04  9.672E-04
   1    4   45     1    45    5.5972E+00  1.8701E-03   5.5954E+00  0.000E+00  0.000E+00  0.000E+00  1.28438E+02  1.788E+00  3.952E+00  8.172E-04  9.057E-04  9.644E-04
   1    4   46     1    46    5.5954E+00  1.8696E-03   5.5935E+00  0.000E+00  0.000E+00  0.000E+00  1.28138E+02  1.788E+00  3.952E+00  8.171E-04  9.097E-04  9.599E-04
   1    4   47     1    47    5.5935E+00  1.8691E-03   5.5916E+00  0.000E+00  0.000E+00  0.000E+00  1.27838E+02  1.788E+00  3.951E+00  8.170E-04  9.157E-04  9.534E-04
   1    4   48     1    48    5.5916E+00  1.8687E-03   5.5898E+00  0.000E+00  0.000E+00  0.000E+00  1.27537E+02  1.787E+00  3.951E+00  8.169E-04  7.311E-04  1.138E-03
   1    4   49     1    49    5.5898E+00  1.8682E-03   5.5879E+00  0.000E+00  0.000E+00  0.000E+00  1.27237E+02  1.787E+00  3.951E+00  8.168E-04  6.811E-04  1.187E-03
   1    4   50     1    50    5.5879E+00  1.8677E-03   5.5860E+00  0.000E+00  0.000E+00  0.000E+00  1.26937E+02  1.787E+00  3.950E+00  8.167E-04  6.891E-04  1.179E-03
   1    4   51     1    51    5.5860E+00  1.8672E-03   5.5842E+00  0.000E+00  0.000E+00  0.000E+00  1.26637E+02  1.787E+00  3.950E+00  8.166E-04  6.897E-04  1.178E-03
   1    4   52     1    52    5.5842E+00  1.8667E-03   5.5823E+00  0.000E+00  0.000E+00  0.000E+00  1.26336E+02  1.786E+00  3.950E+00  8.165E-04  6.878E-04  1.179E-03
   1    4   53     1    53    5.5823E+00  1.8663E-03   5.5804E+00  0.000E+00  0.000E+00  0.000E+00  1.26036E+02  1.786E+00  3.949E+00  8.164E-04  6.870E-04  1.179E-03
   1    4   54     1    54    5.5804E+00  1.8658E-03   5.5786E+00  0.000E+00  0.000E+00  0.000E+00  1.25736E+02  1.786E+00  3.949E+00  8.163E-04  6.875E-04  1.178E-03
   1    4   55     1    55    5.5786E+00  1.8653E-03   5.5767E+00  0.000E+00  0.000E+00  0.000E+00  1.25435E+02  1.785E+00  3.948E+00  8.162E-04  6.899E-04  1.175E-03
   1    4   56     1    56    5.5767E+00  1.8648E-03   5.5748E+00  0.000E+00  0.000E+00  0.000E+00  1.25135E+02  1.785E+00  3.948E+00  8.161E-04  6.750E-04  1.190E-03
   1    4   57     1    57    5.5748E+00  1.8643E-03   5.5730E+00  0.000E+00  0.000E+00  0.000E+00  1.24835E+02  1.785E+00  3.948E+00  8.160E-04  6.628E-04  1.201E-03
   1    4   58     1    58    5.5730E+00  1.8638E-03   5.5711E+00  0.000E+00  0.000E+00  0.000E+00  1.24534E+02  1.784E+00  3.947E+00  8.159E-04  9.080E-04  9.558E-04
   1    4   59     1    59    5.5711E+00  1.8634E-03   5.5692E+00  0.000E+00  0.000E+00  0.000E+00  1.24234E+02  1.784E+00  3.947E+00  8.158E-04  9.002E-04  9.632E-04
   1    4   60     1    60    5.5692E+00  1.8629E-03   5.5674E+00  0.000E+00  0.000E+00  0.000E+00  1.23934E+02  1.784E+00  3.947E+00  8.157E-04  8.948E-04  9.680E-04
   1    4   61     1    61    5.5674E+00  1.8624E-03   5.5655E+00  0.000E+00  0.000E+00  0.000E+00  1.23633E+02  1.783E+00  3.946E+00  8.156E-04  8.911E-04  9.713E-04
   1    4   62     1    62    5.5655E+00  1.8619E-03   5.5636E+00  0.000E+00  0.000E+00  0.000E+00  1.23333E+02  1.783E+00  3.946E+00  8.155E-04  1.084E-03  7.777E-04
   1    4   63     1    63    5.5636E+00  1.8614E-03   5.5618E+00  0.000E+00  0.000E+00  0.000E+00  1.23033E+02  1.783E+00  3.946E+00  8.154E-04  1.468E-03  3.934E-04
   1    4   64     1    64    5.5618E+00  1.8610E-03   5.5599E+00  0.000E+00  0.000E+00  0.000E+00  1.22733E+02  1.783E+00  3.945E+00  8.153E-04  1.825E-03  3.622E-05
   1    4   65     1    65    5.5599E+00  1.8605E-03   5.5581E+00  0.000E+00  0.000E+00  0.000E+00  1.22432E+02  1.782E+00  3.945E+00  8.152E-04  1.947E-03 -8.616E-05
   1    4   66     1    66    5.5581E+00  1.8600E-03   5.5562E+00  0.000E+00  0.000E+00  0.000E+00  1.22132E+02  1.782E+00  3.944E+00  8.151E-04  1.942E-03 -8.185E-05
   1    4   67     1    67    5.5562E+00  1.8595E-03   5.5543E+00  0.000E+00  0.000E+00  0.000E+00  1.21832E+02  1.782E+00  3.944E+00  8.150E-04  1.937E-03 -7.770E-05
   1    4   68     1    68    5.5543E+00  1.8590E-03   5.5525E+00  0.000E+00  0.000E+00  0.000E+00  1.21531E+02  1.781E+00  3.944E+00  8.149E-04  1.934E-03 -7.479E-05
   1    4   69     1    69    5.5525E+00  1.8586E-03   5.5506E+00  0.000E+00  0.000E+00  0.000E+00  1.21231E+02  1.781E+00  3.943E+00  8.148E-04  1.888E-03 -2.935E-05
   1    4   70     1    70    5.5506E+00  1.8581E-03   5.5488E+00  0.000E+00  0.000E+00  0.000E+00  1.20931E+02  1.781E+00  3.943E+00  8.147E-04  1.867E-03 -9.166E-06
   1    4   71     1    71    5.5488E+00  1.8576E-03   5.5469E+00  0.000E+00  0.000E+00  0.000E+00  1.20630E+02  1.780E+00  3.943E+00  8.146E-04  1.866E-03 -8.411E-06
   1    4   72     1    72    5.5469E+00  1.8571E-03   5.5451E+00  0.000E+00  0.000E+00  0.000E+00  1.20330E+02  1.780E+00  3.942E+00  8.145E-04  1.864E-03 -7.085E-06
   1    4   73     1    73    5.5451E+00  1.8566E-03   5.5432E+00  0.000E+00  0.000E+00  0.000E+00  1.20030E+02  1.780E+00  3.942E+00  8.144E-04  1.864E-03 -6.988E-06
   1    4   74     1    74    5.5432E+00  1.8562E-03   5.5413E+00  0.000E+00  0.000E+00  0.000E+00  1.19729E+02  1.779E+00  3.941E+00  8.143E-04  1.863E-03 -7.111E-06
   1    4   75     1    75    5.5413E+00  1.8557E-03   5.5395E+00  0.000E+00  0.000E+00  0.000E+00  1.19429E+02  1.779E+00  3.941E+00  8.142E-04  1.863E-03 -7.460E-06
   1    4   76     1    76    5.5395E+00  1.8552E-03   5.5376E+00  0.000E+00  0.000E+00  0.000E+00  1.19129E+02  1.779E+00  3.941E+00  8.141E-04  1.863E-03 -8.039E-06
   1    4   77     1    77    5.5376E+00  1.8547E-03   5.5358E+00  0.000E+00  0.000E+00  0.000E+00  1.18829E+02  1.779E+00  3.940E+00  8.140E-04  1.864E-03 -8.832E-06
   1    4   78     1    78    5.5358E+00  1.8542E-03   5.5339E+00  0.000E+00  0.000E+00  0.000E+00  1.18528E+02  1.778E+00  3.940E+00  8.139E-04  1.864E-03 -9.827E-06
   1    4   79     1    79    5.5339E+00  1.8538E-03   5.5321E+00  0.000E+00  0.000E+00  0.000E+00  1.18228E+02  1.778E+00  3.940E+00  8.138E-04  1.865E-03 -1.102E-05
   1    4   80     1    80    5.5321E+00  1.8533E-03   5.5302E+00  0.000E+00  0.000E+00  0.000E+00  1.17928E+02  1.778E+00  3.939E+00  8.137E-04  1.840E-03  1.373E-05
   1    4   81     1    81    5.5302E+00  1.8528E-03   5.5284E+00  0.000E+00  0.000E+00  0.000E+00  1.17627E+02  1.777E+00  3.939E+00  8.136E-04  1.841E-03  1.211E-05
   1    4   82     1    82    5.5284E+00  1.8523E-03   5.5265E+00  0.000E+00  0.000E+00  0.000E+00  1.17327E+02  1.777E+00  3.939E+00  8.135E-04  1.843E-03  9.123E-06
   1    4   83     1    83    5.5265E+00  1.8518E-03   5.5247E+00  0.000E+00  0.000E+00  0.000E+00  1.17027E+02  1.777E+00  3.938E+00  8.134E-04  1.846E-03  5.912E-06
   1    4   84     1    84    5.5247E+00  1.8514E-03   5.5228E+00  0.000E+00  0.000E+00  0.000E+00  1.16726E+02  1.776E+00  3.938E+00  8.133E-04  1.848E-03  3.497E-06
   1    4   85     1    85    5.5228E+00  1.8509E-03   5.5210E+00  0.000E+00  0.000E+00  0.000E+00  1.16426E+02  1.776E+00  3.937E+00  8.132E-04  1.850E-03  9.016E-07
   1    4   86     1    86    5.5210E+00  1.8504E-03   5.5191E+00  0.000E+00  0.000E+00  0.000E+00  1.16126E+02  1.776E+00  3.937E+00  8.131E-04  1.852E-03 -1.857E-06
   1    4   87     1    87    5.5191E+00  1.8499E-03   5.5173E+00  0.000E+00  0.000E+00  0.000E+00  1.15825E+02  1.775E+00  3.937E+00  8.130E-04  1.855E-03 -4.763E-06
   1    4   88     1    88    5.5173E+00  1.8495E-03   5.5154E+00  0.000E+00  0.000E+00  0.000E+00  1.15525E+02  1.775E+00  3.936E+00  8.129E-04  1.857E-03 -7.791E-06
   1    4   89     1    89    5.5154E+00  1.8490E-03   5.5136E+00  0.000E+00  0.000E+00  0.000E+00  1.15225E+02  1.775E+00  3.936E+00  8.128E-04  1.840E-03  8.480E-06
   1    4   90     1    90    5.5136E+00  1.8485E-03   5.5117E+00  0.000E+00  0.000E+00  0.000E+00  1.14925E+02  1.775E+00  3.936E+00  8.127E-04  1.843E-03  5.305E-06
   1    4   91     1    91    5.5117E+00  1.8480E-03   5.5099E+00  0.000E+00  0.000E+00  0.000E+00  1.14624E+02  1.774E+00  3.935E+00  8.126E-04  1.846E-03  2.121E-06
   1    4   92     1    92    5.5099E+00  1.8475E-03   5.5080E+00  0.000E+00  0.000E+00  0.000E+00  1.14324E+02  1.774E+00  3.935E+00  8.125E-04  1.849E-03 -1.061E-06
   1    4   93     1    93    5.5080E+00  1.8471E-03   5.5062E+00  0.000E+00  0.000E+00  0.000E+00  1.14024E+02  1.774E+00  3.934E+00  8.124E-04  1.851E-03 -4.203E-06
   1    4   94     1    94    5.5062E+00  1.8466E-03   5.5043E+00  0.000E+00  0.000E+00  0.000E+00  1.13723E+02  1.773E+00  3.934E+00  8.123E-04  1.854E-03 -7.251E-06
   1    4   95     1    95    5.5043E+00  1.8461E-03   5.5025E+00  0.000E+00  0.000E+00  0.000E+00  1.13423E+02  1.773E+00  3.934E+00  8.122E-04  1.856E-03 -1.016E-05
   1    4   96     1    96    5.5025E+00  1.8456E-03   5.5006E+00  0.000E+00  0.000E+00  0.000E+00  1.13123E+02  1.773E+00  3.933E+00  8.121E-04  1.859E-03 -1.290E-05
   1    4   97     1    97    5.5006E+00  1.8452E-03   5.4988E+00  0.000E+00  0.000E+00  0.000E+00  1.12822E+02  1.772E+00  3.933E+00  8.120E-04  1.861E-03 -1.543E-05
   1    4   98     1    98    5.4988E+00  1.8447E-03   5.4969E+00  0.000E+00  0.000E+00  0.000E+00  1.12522E+02  1.772E+00  3.933E+00  8.119E-04  1.862E-03 -1.778E-05
   1    4   99     1    99    5.4969E+00  1.8442E-03   5.4951E+00  0.000E+00  0.000E+00  0.000E+00  1.12222E+02  1.772E+00  3.932E+00  8.118E-04  1.864E-03 -1.997E-05
   1    4  100     1   100    5.4951E+00  1.8437E-03   5.4932E+00  0.000E+00  0.000E+00  0.000E+00  1.11921E+02  1.771E+00  3.932E+00  8.117E-04  1.866E-03 -2.207E-05



1
  VOLUMETRIC BUDGET FOR UNSATURATED ZONE BENEATH STREAMS AT END OF TIME STEP    30 STRESS PERIOD  29
  ------------------------------------------------------------------------------------------------

    CUMULATIVE VOLUMES             L**3    RATES FOR THIS TIME STEP         L**3/T
    ------------------                     ------------------------


          STREAM LOSS =     28238648.0000            STREAM LOSS =            0.1868
    CHANGE IN STORAGE =      1377628.3750      CHANGE IN STORAGE =        2.1243E-02
       RECHARGE TO GW =     26868106.0000         RECHARGE TO GW =            0.1655

             TOTAL IN =     28238648.0000               TOTAL IN =            0.1868

            TOTAL OUT =     28245734.0000              TOTAL OUT =            0.1868

             IN - OUT =        -7086.0000               IN - OUT =       -1.4901E-08

  PERCENT DISCREPANCY =           -0.01      PERCENT DISCREPANCY =            -0.00



1
  VOLUMETRIC BUDGET FOR ENTIRE MODEL AT END OF TIME STEP   30, STRESS PERIOD  29
  ------------------------------------------------------------------------------

     CUMULATIVE VOLUMES      L**3       RATES FOR THIS TIME STEP      L**3/T
     ------------------                 ------------------------

           IN:                                      IN:
           ---                                      ---
             STORAGE     =    98551944.0000               STORAGE     =           0.5192
       CONSTANT HEAD     =           0.0000         CONSTANT HEAD     =           0.0000
               WELLS     =           0.0000                 WELLS     =           0.0000
     HEAD DEP BOUNDS     =      166508.4531       HEAD DEP BOUNDS     =       2.9895E-02
      STREAM LEAKAGE     =    26867882.0000        STREAM LEAKAGE     =           0.1655

                TOTAL IN =   125586336.0000                  TOTAL IN =           0.7146

          OUT:                                     OUT:
          ----                                     ----
             STORAGE     =     3026972.2500               STORAGE     =           0.0000
       CONSTANT HEAD     =           0.0000         CONSTANT HEAD     =           0.0000
               WELLS     =   106200008.0000                 WELLS     =           0.7146
     HEAD DEP BOUNDS     =    16359348.0000       HEAD DEP BOUNDS     =           0.0000
      STREAM LEAKAGE     =           0.0000        STREAM LEAKAGE     =           0.0000

               TOTAL OUT =   125586336.0000                 TOTAL OUT =           0.7146

                IN - OUT =           0.0000                  IN - OUT =      -5.9605E-08

     PERCENT DISCREPANCY =           0.00         PERCENT DISCREPANCY =          -0.00






         TIME SUMMARY AT END OF TIME STEP   30 IN STRESS PERIOD   29
                    SECONDS     MINUTES      HOURS       DAYS        YEARS
                    -----------------------------------------------------------
   TIME STEP LENGTH 2.49961E+05  4166.0      69.434      2.8931     7.92080E-03
 STRESS PERIOD TIME 2.59200E+06  43200.      720.00      30.000     8.21355E-02
         TOTAL TIME 7.51680E+07 1.25280E+06  20880.      870.00      2.3819    
1
1
                            STRESS PERIOD NO.   30, LENGTH =   2592000.    
                            -----------------------------------------------

                              NUMBER OF TIME STEPS =    30

                               MULTIPLIER FOR DELT =     1.100

                            INITIAL TIME STEP SIZE =   15757.40    

 REUSING NON-PARAMETER WELLS FROM LAST STRESS PERIOD

      1 WELL 

 REUSING NON-PARAMETER GHB CELLS FROM LAST STRESS PERIOD

      7 GHB CELLS



 CLASSIFICATION & COUNT OF STREAM SEGMENTS BASED ON SOURCE OF INFLOW:

                HEADWATER     DIVERSION     RECEIVES TRIBUTARY FLOW
                ---------     ---------     -----------------------
                     1              0               0



                    INPUT DATA FOR EACH STREAM SEGMENT
 ---------------------------------------------------------------------------------------------

 SEGMENT    SEG.     INFLOW   OVERLAND   STREAM    STREAM   ICALC  OUTFLOW  DIVERSION PRIORITY
    NO.    LENGTH     RATE     RUNOFF      ET       PPT.    METH.  TO SEG.  FROM SEG.    NO.

      1  2.000E+04 7.710E+00 0.000E+00 0.000E+00 0.000E+00    2        0        0        0


         STREAMBED PROPERTIES AND STREAM DIMENSIONS

 SEGMENT     BED HYD. COND.      BED THICKNESS     ELEV.-TOP OF BED     WIDTH OF STREAM     DEPTH OF STREAM    STREAM ROUGHNESS
    No.     UPPER     LOWER     UPPER     LOWER     UPPER     LOWER     UPPER     LOWER     UPPER     LOWER   CHANNEL      BANK

     1  3.500E-07 3.500E-07                                                                                 3.000E-02 4.000E-02

  EIGHT POINT CROSS-SECTION DATA FOR SEGMENTS WITH ICALC = 2
    X VALUES X VALUES START FROM LEFT SIDE LOOKING DOWNSTREAM

     SEGMENT NO.        X1        X2        X3        X4        X5        X6        X7        X8
            1      0.000E+00 2.000E+00 4.000E+00 6.000E+00 8.000E+00 1.000E+01 1.200E+01 1.400E+01

    Z VALUES ARE RELATIVE TO STREAMBED ELEVATION

     SEGMENT NO.          Z1        Z2        Z3        Z4        Z5        Z6        Z7        Z8
            1      6.000E+00 4.500E+00 3.500E+00 0.000E+00 3.000E-01 3.500E+00 4.500E+00 6.000E+00



 
 SOLVING FOR HEAD 
                                                   Max.-Head-Change                         Max.-Flux-Residual
  Residual-Control   Outer-Iter.   Inner-Iter.     Column Row Layer    Maximum-Head-Change  Column Row Layer    Maximum-Flux-Residual          L2-NORM 
          0                 1           2             1    1     1      -0.5544564062E-02      50    3    1         0.9605028762E-01      0.1231997450E+00
          0                 2           2             1    1     1       0.5388269476E-03      55    5    1        -0.6999638002E-02      0.7764984580E-02
          0                 3           1             2    1     1      -0.4739461303E-04      55    5    1         0.6555336356E-03      0.7272287829E-03
          0                 4           1             3    1     1       0.3727050249E-05      55    5    1        -0.5230868672E-04      0.5811638682E-04
          0                 5           1             3    1     1      -0.2581234810E-06      55    5    1         0.3678509094E-05      0.4091291120E-05

    ------------------------------------------------
       NWT REQUIRED            5 OUTER ITERATIONS 
       AND A TOTAL OF          7 INNER ITERATIONS.
    ------------------------------------------------

 NO OUTPUT CONTROL FOR STRESS PERIOD   30   TIME STEP    1
 
 WELLS WITH REDUCED PUMPING FOR STRESS PERIOD    30 TIME STEP     1
   LAY   ROW   COL         APPL.Q          ACT.Q        GW-HEAD       CELL-BOT
     1     3    50  -0.510409E+00  -0.403160E+00   0.789247E-03   0.000000E+00
     1     5    55  -0.510409E+00  -0.311228E+00   0.636816E-03   0.000000E+00
 
 
 SOLVING FOR HEAD 
                                                   Max.-Head-Change                         Max.-Flux-Residual
  Residual-Control   Outer-Iter.   Inner-Iter.     Column Row Layer    Maximum-Head-Change  Column Row Layer    Maximum-Flux-Residual          L2-NORM 
          0                 1           2             1    1     1      -0.6097303282E-02       1    1    1        -0.1153674235E-02      0.2125374541E-01
          0                 2           2             1    1     1       0.5912073241E-03       1    1    1         0.1153672605E-03      0.2068260044E-02
          0                 3           1             2    1     1      -0.5189755302E-04       1    1    1        -0.1038307251E-04      0.1894984122E-03
          0                 4           1             3    1     1       0.4074329439E-05       1    1    1         0.8316840976E-06      0.1553316981E-04
          0                 5           1             3    1     1      -0.2818094083E-06       1    1    1        -0.5846659690E-07      0.1110912075E-05

    ------------------------------------------------
       NWT REQUIRED            5 OUTER ITERATIONS 
       AND A TOTAL OF          7 INNER ITERATIONS.
    ------------------------------------------------

 NO OUTPUT CONTROL FOR STRESS PERIOD   30   TIME STEP    2
 
 WELLS WITH REDUCED PUMPING FOR STRESS PERIOD    30 TIME STEP     2
   LAY   ROW   COL         APPL.Q          ACT.Q        GW-HEAD       CELL-BOT
     1     3    50  -0.510084E+00  -0.403115E+00   0.789619E-03   0.000000E+00
     1     5    55  -0.510084E+00  -0.311174E+00   0.637030E-03   0.000000E+00
 
 
 SOLVING FOR HEAD 
                                                   Max.-Head-Change                         Max.-Flux-Residual
  Residual-Control   Outer-Iter.   Inner-Iter.     Column Row Layer    Maximum-Head-Change  Column Row Layer    Maximum-Flux-Residual          L2-NORM 
          0                 1           2             1    1     1      -0.6705018189E-02       1    1    1        -0.1153585349E-02      0.2121576899E-01
          0                 2           2             1    1     1       0.6485840415E-03       1    1    1         0.1153583361E-03      0.2063626784E-02
          0                 3           1             2    1     1      -0.5681022508E-04       1    1    1        -0.1038227314E-04      0.1893258922E-03
          0                 4           1             3    1     1       0.4451678895E-05       1    1    1         0.8316200102E-06      0.1555685814E-04
          0                 5           1             3    1     1      -0.3074496586E-06       1    4    1         0.5985595664E-07      0.1115405925E-05

    ------------------------------------------------
       NWT REQUIRED            5 OUTER ITERATIONS 
       AND A TOTAL OF          7 INNER ITERATIONS.
    ------------------------------------------------

 NO OUTPUT CONTROL FOR STRESS PERIOD   30   TIME STEP    3
 
 WELLS WITH REDUCED PUMPING FOR STRESS PERIOD    30 TIME STEP     3
   LAY   ROW   COL         APPL.Q          ACT.Q        GW-HEAD       CELL-BOT
     1     3    50  -0.509934E+00  -0.403041E+00   0.789698E-03   0.000000E+00
     1     5    55  -0.509934E+00  -0.311100E+00   0.637056E-03   0.000000E+00
 
 
 SOLVING FOR HEAD 
                                                   Max.-Head-Change                         Max.-Flux-Residual
  Residual-Control   Outer-Iter.   Inner-Iter.     Column Row Layer    Maximum-Head-Change  Column Row Layer    Maximum-Flux-Residual          L2-NORM 
          0                 1           2             1    1     1      -0.7373165173E-02       1    1    1        -0.1153487001E-02      0.2120328520E-01
          0                 2           2             1    1     1       0.7114318325E-03       1    1    1         0.1153484591E-03      0.2061990389E-02
          0                 3           1             2    1     1      -0.6216905534E-04       1    1    1        -0.1038138873E-04      0.1893544057E-03
          0                 4           1             3    1     1       0.4861522080E-05       1    1    1         0.8315491158E-06      0.1559605127E-04
          0                 5           1             3    1     1      -0.3351818087E-06       1    4    1         0.6242365913E-07      0.1121205216E-05

    ------------------------------------------------
       NWT REQUIRED            5 OUTER ITERATIONS 
       AND A TOTAL OF          7 INNER ITERATIONS.
    ------------------------------------------------

 NO OUTPUT CONTROL FOR STRESS PERIOD   30   TIME STEP    4
 
 WELLS WITH REDUCED PUMPING FOR STRESS PERIOD    30 TIME STEP     4
   LAY   ROW   COL         APPL.Q          ACT.Q        GW-HEAD       CELL-BOT
     1     3    50  -0.510070E+00  -0.402959E+00   0.789364E-03   0.000000E+00
     1     5    55  -0.510070E+00  -0.311019E+00   0.636813E-03   0.000000E+00
 
 
 SOLVING FOR HEAD 
                                                   Max.-Head-Change                         Max.-Flux-Residual
  Residual-Control   Outer-Iter.   Inner-Iter.     Column Row Layer    Maximum-Head-Change  Column Row Layer    Maximum-Flux-Residual          L2-NORM 
          0                 1           2             1    1     1      -0.8107740870E-02       1    1    1        -0.1153378142E-02      0.2116343782E-01
          0                 2           2             1    1     1       0.7802726205E-03       1    1    1         0.1153375236E-03      0.2057906727E-02
          0                 3           1             1    1     1      -0.6801417122E-04       1    1    1        -0.1038040980E-04      0.1892395989E-03
          0                 4           1             3    1     1       0.5306510227E-05       1    1    1         0.8314706292E-06      0.1562781874E-04
          0                 5           1             4    1     1      -0.3651587338E-06       1    4    1         0.6496255978E-07      0.1126748414E-05

    ------------------------------------------------
       NWT REQUIRED            5 OUTER ITERATIONS 
       AND A TOTAL OF          7 INNER ITERATIONS.
    ------------------------------------------------

 NO OUTPUT CONTROL FOR STRESS PERIOD   30   TIME STEP    5
 
 WELLS WITH REDUCED PUMPING FOR STRESS PERIOD    30 TIME STEP     5
   LAY   ROW   COL         APPL.Q          ACT.Q        GW-HEAD       CELL-BOT
     1     3    50  -0.510035E+00  -0.402869E+00   0.789255E-03   0.000000E+00
     1     5    55  -0.510035E+00  -0.310930E+00   0.636713E-03   0.000000E+00
 
 
 SOLVING FOR HEAD 
                                                   Max.-Head-Change                         Max.-Flux-Residual
  Residual-Control   Outer-Iter.   Inner-Iter.     Column Row Layer    Maximum-Head-Change  Column Row Layer    Maximum-Flux-Residual          L2-NORM 
          0                 1           2             1    1     1      -0.8915337161E-02       1    1    1        -0.1153257583E-02      0.2114359905E-01
          0                 2           2             1    1     1       0.8556807038E-03       1    1    1         0.1153254097E-03      0.2056045535E-02
          0                 3           1             1    1     1      -0.7438953253E-04       1    1    1        -0.1037932573E-04      0.1893139403E-03
          0                 4           1             1    1     1       0.5789575569E-05       1    1    1         0.8313837156E-06      0.1567526092E-04
          0                 5           1             4    1     1      -0.3975407243E-06       1    4    1         0.6746370929E-07      0.1133542390E-05

    ------------------------------------------------
       NWT REQUIRED            5 OUTER ITERATIONS 
       AND A TOTAL OF          7 INNER ITERATIONS.
    ------------------------------------------------

 NO OUTPUT CONTROL FOR STRESS PERIOD   30   TIME STEP    6
 
 WELLS WITH REDUCED PUMPING FOR STRESS PERIOD    30 TIME STEP     6
   LAY   ROW   COL         APPL.Q          ACT.Q        GW-HEAD       CELL-BOT
     1     3    50  -0.509971E+00  -0.402770E+00   0.789170E-03   0.000000E+00
     1     5    55  -0.509971E+00  -0.310832E+00   0.636625E-03   0.000000E+00
 
 
 SOLVING FOR HEAD 
                                                   Max.-Head-Change                         Max.-Flux-Residual
  Residual-Control   Outer-Iter.   Inner-Iter.     Column Row Layer    Maximum-Head-Change  Column Row Layer    Maximum-Flux-Residual          L2-NORM 
          0                 1           2             1    1     1      -0.9803197068E-02       1    1    1        -0.1153123998E-02      0.2113196632E-01
          0                 2           2             1    1     1       0.9382880329E-03       1    1    1         0.1153119838E-03      0.2054600644E-02
          0                 3           1             1    1     1      -0.8134359968E-04       1    1    1        -0.1037812454E-04      0.1893818996E-03
          0                 4           1             1    1     1       0.6313909500E-05       1    1    1         0.8312874087E-06      0.1572147832E-04
          0                 5           1             4    1     1      -0.4325046498E-06       1    4    1         0.6991843904E-07      0.1140441386E-05

    ------------------------------------------------
       NWT REQUIRED            5 OUTER ITERATIONS 
       AND A TOTAL OF          7 INNER ITERATIONS.
    ------------------------------------------------

 NO OUTPUT CONTROL FOR STRESS PERIOD   30   TIME STEP    7
 
 WELLS WITH REDUCED PUMPING FOR STRESS PERIOD    30 TIME STEP     7
   LAY   ROW   COL         APPL.Q          ACT.Q        GW-HEAD       CELL-BOT
     1     3    50  -0.509941E+00  -0.402661E+00   0.789019E-03   0.000000E+00
     1     5    55  -0.509941E+00  -0.310724E+00   0.636492E-03   0.000000E+00
 
 
 SOLVING FOR HEAD 
                                                   Max.-Head-Change                         Max.-Flux-Residual
  Residual-Control   Outer-Iter.   Inner-Iter.     Column Row Layer    Maximum-Head-Change  Column Row Layer    Maximum-Flux-Residual          L2-NORM 
          0                 1           2             1    1     1      -0.1077928172E-01       1    1    1        -0.1152975925E-02      0.2109917317E-01
          0                 2           2             1    1     1       0.1028790520E-02       1    1    1         0.1152970985E-03      0.2051969278E-02
          0                 3           1             1    1     1      -0.8892984278E-04       1    1    1        -0.1037679311E-04      0.1893817635E-03
          0                 4           1             1    1     1       0.6883020252E-05       1    1    1         0.8311806425E-06      0.1576403137E-04
          0                 5           1             4    1     1      -0.4702444114E-06       1    4    1         0.7231860266E-07      0.1147247138E-05

    ------------------------------------------------
       NWT REQUIRED            5 OUTER ITERATIONS 
       AND A TOTAL OF          7 INNER ITERATIONS.
    ------------------------------------------------

 NO OUTPUT CONTROL FOR STRESS PERIOD   30   TIME STEP    8
 
 WELLS WITH REDUCED PUMPING FOR STRESS PERIOD    30 TIME STEP     8
   LAY   ROW   COL         APPL.Q          ACT.Q        GW-HEAD       CELL-BOT
     1     3    50  -0.509955E+00  -0.402541E+00   0.788789E-03   0.000000E+00
     1     5    55  -0.509955E+00  -0.310606E+00   0.636304E-03   0.000000E+00
 
 
 SOLVING FOR HEAD 
                                                   Max.-Head-Change                         Max.-Flux-Residual
  Residual-Control   Outer-Iter.   Inner-Iter.     Column Row Layer    Maximum-Head-Change  Column Row Layer    Maximum-Flux-Residual          L2-NORM 
          0                 1           2             1    1     1      -0.1185233735E-01       1    1    1        -0.1152811744E-02      0.2106744367E-01
          0                 2           2             1    1     1       0.1127954329E-02       1    1    1         0.1152805905E-03      0.2048566484E-02
          0                 3           1             1    1     1      -0.9720725321E-04       1    1    1        -0.1037531688E-04      0.1892962848E-03
          0                 4           1             1    1     1       0.7500779572E-05       1    1    1         0.8310622839E-06      0.1580070850E-04
          0                 5           1             4    1     1      -0.5109718456E-06       1    4    1         0.7465648721E-07      0.1153854947E-05

    ------------------------------------------------
       NWT REQUIRED            5 OUTER ITERATIONS 
       AND A TOTAL OF          7 INNER ITERATIONS.
    ------------------------------------------------

 NO OUTPUT CONTROL FOR STRESS PERIOD   30   TIME STEP    9
 
 WELLS WITH REDUCED PUMPING FOR STRESS PERIOD    30 TIME STEP     9
   LAY   ROW   COL         APPL.Q          ACT.Q        GW-HEAD       CELL-BOT
     1     3    50  -0.509979E+00  -0.402409E+00   0.788524E-03   0.000000E+00
     1     5    55  -0.509979E+00  -0.310476E+00   0.636090E-03   0.000000E+00
 
 
 SOLVING FOR HEAD 
                                                   Max.-Head-Change                         Max.-Flux-Residual
  Residual-Control   Outer-Iter.   Inner-Iter.     Column Row Layer    Maximum-Head-Change  Column Row Layer    Maximum-Flux-Residual          L2-NORM 
          0                 1           2             1    1     1      -0.1303197743E-01       1    1    1        -0.1152629663E-02      0.2104224782E-01
          0                 2           2             7    7     1       0.1237112006E-02       1    1    1         0.1152622793E-03      0.2046144220E-02
          0                 3           1             7    7     1      -0.1064109851E-03       1    1    1        -0.1037367974E-04      0.1892618104E-03
          0                 4           1             7    7     1       0.8189353569E-05       1    1    1         0.8309309969E-06      0.1583836111E-04
          0                 5           1             7    7     1      -0.5561908343E-06       1    4    1         0.7692496240E-07      0.1160520118E-05

    ------------------------------------------------
       NWT REQUIRED            5 OUTER ITERATIONS 
       AND A TOTAL OF          7 INNER ITERATIONS.
    ------------------------------------------------

 NO OUTPUT CONTROL FOR STRESS PERIOD   30   TIME STEP   10
 
 WELLS WITH REDUCED PUMPING FOR STRESS PERIOD    30 TIME STEP    10
   LAY   ROW   COL         APPL.Q          ACT.Q        GW-HEAD       CELL-BOT
     1     3    50  -0.509957E+00  -0.402265E+00   0.788302E-03   0.000000E+00
     1     5    55  -0.509957E+00  -0.310333E+00   0.635898E-03   0.000000E+00
 
 
 SOLVING FOR HEAD 
                                                   Max.-Head-Change                         Max.-Flux-Residual
  Residual-Control   Outer-Iter.   Inner-Iter.     Column Row Layer    Maximum-Head-Change  Column Row Layer    Maximum-Flux-Residual          L2-NORM 
          0                 1           2             1    1     1      -0.1432878067E-01       1    1    1        -0.1152427775E-02      0.2101944627E-01
          0                 2           2             7    7     1       0.1358903147E-02       1    1    1         0.1152419728E-03      0.2044199892E-02
          0                 3           2             7    7     1      -0.1167228474E-03       1    1    1        -0.1037186453E-04      0.1892161224E-03
          0                 4           1             7    7     1       0.8965077608E-05       1    4    1        -0.8333673200E-06      0.1587452068E-04
          0                 5           1             7    7     1      -0.6070009384E-06       5    4    1         0.7919582856E-07      0.1166975143E-05

    ------------------------------------------------
       NWT REQUIRED            5 OUTER ITERATIONS 
       AND A TOTAL OF          8 INNER ITERATIONS.
    ------------------------------------------------

 NO OUTPUT CONTROL FOR STRESS PERIOD   30   TIME STEP   11
 
 WELLS WITH REDUCED PUMPING FOR STRESS PERIOD    30 TIME STEP    11
   LAY   ROW   COL         APPL.Q          ACT.Q        GW-HEAD       CELL-BOT
     1     3    50  -0.510017E+00  -0.402119E+00   0.787963E-03   0.000000E+00
     1     5    55  -0.510017E+00  -0.310180E+00   0.635618E-03   0.000000E+00
 
 
 SOLVING FOR HEAD 
                                                   Max.-Head-Change                         Max.-Flux-Residual
  Residual-Control   Outer-Iter.   Inner-Iter.     Column Row Layer    Maximum-Head-Change  Column Row Layer    Maximum-Flux-Residual          L2-NORM 
          0                 1           2             5    1     1      -0.1576170289E-01       6    3    1        -0.1153513617E-02      0.2098524003E-01
          0                 2           2             7    7     1       0.1492265419E-02       6    5    1         0.1153490620E-03      0.2040606102E-02
          0                 3           2             7    7     1      -0.1278797493E-03       6    5    1        -0.1038160049E-04      0.1890259902E-03
          0                 4           1             7    7     1       0.9794315561E-05       4    4    1        -0.8521989301E-06      0.1589729983E-04
          0                 5           1             7    7     1      -0.6608953265E-06       4    4    1         0.8151274855E-07      0.1172552288E-05

    ------------------------------------------------
       NWT REQUIRED            5 OUTER ITERATIONS 
       AND A TOTAL OF          8 INNER ITERATIONS.
    ------------------------------------------------

 NO OUTPUT CONTROL FOR STRESS PERIOD   30   TIME STEP   12
 
 WELLS WITH REDUCED PUMPING FOR STRESS PERIOD    30 TIME STEP    12
   LAY   ROW   COL         APPL.Q          ACT.Q        GW-HEAD       CELL-BOT
     1     3    50  -0.510026E+00  -0.401958E+00   0.787668E-03   0.000000E+00
     1     5    55  -0.510026E+00  -0.310021E+00   0.635374E-03   0.000000E+00
 
 
 SOLVING FOR HEAD 
                                                   Max.-Head-Change                         Max.-Flux-Residual
  Residual-Control   Outer-Iter.   Inner-Iter.     Column Row Layer    Maximum-Head-Change  Column Row Layer    Maximum-Flux-Residual          L2-NORM 
          0                 1           2             5    1     1      -0.1733850663E-01       5    3    1        -0.1153856275E-02      0.2094827151E-01
          0                 2           2             7    7     1       0.1638061259E-02       5    3    1         0.1153830826E-03      0.2036762940E-02
          0                 3           2             7    7     1      -0.1399795040E-03       5    3    1        -0.1038468252E-04      0.1888199696E-03
          0                 4           1             7    7     1       0.1068695315E-04       3    4    1        -0.8687291455E-06      0.1591915699E-04
          0                 5           1             7    7     1      -0.7184163336E-06       3    4    1         0.8356626680E-07      0.1178085036E-05

    ------------------------------------------------
       NWT REQUIRED            5 OUTER ITERATIONS 
       AND A TOTAL OF          8 INNER ITERATIONS.
    ------------------------------------------------

 NO OUTPUT CONTROL FOR STRESS PERIOD   30   TIME STEP   13
 
 WELLS WITH REDUCED PUMPING FOR STRESS PERIOD    30 TIME STEP    13
   LAY   ROW   COL         APPL.Q          ACT.Q        GW-HEAD       CELL-BOT
     1     3    50  -0.510026E+00  -0.401780E+00   0.787355E-03   0.000000E+00
     1     5    55  -0.510026E+00  -0.309847E+00   0.635116E-03   0.000000E+00
 
 
 SOLVING FOR HEAD 
                                                   Max.-Head-Change                         Max.-Flux-Residual
  Residual-Control   Outer-Iter.   Inner-Iter.     Column Row Layer    Maximum-Head-Change  Column Row Layer    Maximum-Flux-Residual          L2-NORM 
          0                 1           2             5    1     1      -0.1906826193E-01       5    3    1        -0.1153265005E-02      0.2093270978E-01
          0                 2           2             6    7     1       0.1797667438E-02       5    3    1         0.1153237967E-03      0.2035182008E-02
          0                 3           2             7    7     1      -0.1531510489E-03       5    5    1        -0.1037936594E-04      0.1887896953E-03
          0                 4           1             7    7     1       0.1165385236E-04       3    4    1        -0.8857210112E-06      0.1595295395E-04
          0                 5           1             7    7     1      -0.7802395157E-06       3    4    1         0.8574381738E-07      0.1184306301E-05

    ------------------------------------------------
       NWT REQUIRED            5 OUTER ITERATIONS 
       AND A TOTAL OF          8 INNER ITERATIONS.
    ------------------------------------------------

 NO OUTPUT CONTROL FOR STRESS PERIOD   30   TIME STEP   14
 
 WELLS WITH REDUCED PUMPING FOR STRESS PERIOD    30 TIME STEP    14
   LAY   ROW   COL         APPL.Q          ACT.Q        GW-HEAD       CELL-BOT
     1     3    50  -0.510011E+00  -0.401584E+00   0.787032E-03   0.000000E+00
     1     5    55  -0.510011E+00  -0.309655E+00   0.634845E-03   0.000000E+00
 
 
 SOLVING FOR HEAD 
                                                   Max.-Head-Change                         Max.-Flux-Residual
  Residual-Control   Outer-Iter.   Inner-Iter.     Column Row Layer    Maximum-Head-Change  Column Row Layer    Maximum-Flux-Residual          L2-NORM 
          0                 1           2             4    1     1      -0.2097066670E-01       4    5    1        -0.1153461289E-02      0.2088738374E-01
          0                 2           2             6    7     1       0.1972439451E-02       4    3    1         0.1153432391E-03      0.2030674915E-02
          0                 3           2             6    7     1      -0.1675494150E-03       4    3    1        -0.1038114756E-04      0.1885368985E-03
          0                 4           1             6    7     1       0.1270523978E-04       2    4    1        -0.8995891179E-06      0.1597105024E-04
          0                 5           1             7    7     1      -0.8468470104E-06       2    4    1         0.8756778058E-07      0.1189416016E-05

    ------------------------------------------------
       NWT REQUIRED            5 OUTER ITERATIONS 
       AND A TOTAL OF          8 INNER ITERATIONS.
    ------------------------------------------------

 NO OUTPUT CONTROL FOR STRESS PERIOD   30   TIME STEP   15
 
 WELLS WITH REDUCED PUMPING FOR STRESS PERIOD    30 TIME STEP    15
   LAY   ROW   COL         APPL.Q          ACT.Q        GW-HEAD       CELL-BOT
     1     3    50  -0.510011E+00  -0.401370E+00   0.786658E-03   0.000000E+00
     1     5    55  -0.510011E+00  -0.309444E+00   0.634533E-03   0.000000E+00
 
 
 SOLVING FOR HEAD 
                                                   Max.-Head-Change                         Max.-Flux-Residual
  Residual-Control   Outer-Iter.   Inner-Iter.     Column Row Layer    Maximum-Head-Change  Column Row Layer    Maximum-Flux-Residual          L2-NORM 
          0                 1           2             4    1     1      -0.2305890039E-01       3    3    1        -0.1153416955E-02      0.2085661763E-01
          0                 2           2             5    1     1       0.2163932963E-02       3    3    1         0.1153384130E-03      0.2027609787E-02
          0                 3           2             6    7     1      -0.1832697643E-03       3    3    1        -0.1038073283E-04      0.1883838296E-03
          0                 4           1             6    7     1       0.1385082067E-04       1    4    1        -0.9127099254E-06      0.1599477325E-04
          0                 5           1             5    1     1      -0.9192761464E-06       1    4    1         0.8915269945E-07      0.1194657389E-05

    ------------------------------------------------
       NWT REQUIRED            5 OUTER ITERATIONS 
       AND A TOTAL OF          8 INNER ITERATIONS.
    ------------------------------------------------

 NO OUTPUT CONTROL FOR STRESS PERIOD   30   TIME STEP   16
 
 WELLS WITH REDUCED PUMPING FOR STRESS PERIOD    30 TIME STEP    16
   LAY   ROW   COL         APPL.Q          ACT.Q        GW-HEAD       CELL-BOT
     1     3    50  -0.510011E+00  -0.401144E+00   0.786262E-03   0.000000E+00
     1     5    55  -0.510011E+00  -0.309214E+00   0.634192E-03   0.000000E+00
 
 
 SOLVING FOR HEAD 
                                                   Max.-Head-Change                         Max.-Flux-Residual
  Residual-Control   Outer-Iter.   Inner-Iter.     Column Row Layer    Maximum-Head-Change  Column Row Layer    Maximum-Flux-Residual          L2-NORM 
          0                 1           2             3    1     1      -0.2535667341E-01       3    3    1        -0.1152705890E-02      0.2084413985E-01
          0                 2           2             5    1     1       0.2373806861E-02       3    3    1         0.1152671857E-03      0.2025624238E-02
          0                 3           2             5    1     1      -0.2004973861E-03       3    3    1        -0.1037434678E-04      0.1882236398E-03
          0                 4           1             5    1     1       0.1510233077E-04       1    4    1        -0.9293670544E-06      0.1601024614E-04
          0                 5           1             4    1     1      -0.9980738254E-06       1    4    1         0.9133638201E-07      0.1198796694E-05

    ------------------------------------------------
       NWT REQUIRED            5 OUTER ITERATIONS 
       AND A TOTAL OF          8 INNER ITERATIONS.
    ------------------------------------------------

 NO OUTPUT CONTROL FOR STRESS PERIOD   30   TIME STEP   17
 
 WELLS WITH REDUCED PUMPING FOR STRESS PERIOD    30 TIME STEP    17
   LAY   ROW   COL         APPL.Q          ACT.Q        GW-HEAD       CELL-BOT
     1     3    50  -0.510022E+00  -0.400908E+00   0.785834E-03   0.000000E+00
     1     5    55  -0.510022E+00  -0.308973E+00   0.633825E-03   0.000000E+00
 
 
 SOLVING FOR HEAD 
                                                   Max.-Head-Change                         Max.-Flux-Residual
  Residual-Control   Outer-Iter.   Inner-Iter.     Column Row Layer    Maximum-Head-Change  Column Row Layer    Maximum-Flux-Residual          L2-NORM 
          0                 1           2             2    1     1      -0.2788267034E-01       2    5    1        -0.1153275499E-02      0.2078635311E-01
          0                 2           2             4    1     1       0.2604300451E-02       2    3    1         0.1153231827E-03      0.2020403114E-02
          0                 3           2             4    1     1      -0.2193388206E-03       2    3    1        -0.1037938477E-04      0.1879044679E-03
          0                 4           1             5    1     1       0.1646607174E-04      14    4    1        -0.9181269895E-06      0.1602186353E-04
          0                 5           1             4    1     1      -0.1083083344E-05      14    4    1         0.9056126515E-07      0.1202724622E-05
          0                 6           1             4    1     1       0.6157954518E-07      14    4    1        -0.6827228560E-08      0.7739443985E-07

    ------------------------------------------------
       NWT REQUIRED            6 OUTER ITERATIONS 
       AND A TOTAL OF          9 INNER ITERATIONS.
    ------------------------------------------------

 NO OUTPUT CONTROL FOR STRESS PERIOD   30   TIME STEP   18
 
 WELLS WITH REDUCED PUMPING FOR STRESS PERIOD    30 TIME STEP    18
   LAY   ROW   COL         APPL.Q          ACT.Q        GW-HEAD       CELL-BOT
     1     3    50  -0.510017E+00  -0.400668E+00   0.785422E-03   0.000000E+00
     1     5    55  -0.510017E+00  -0.308727E+00   0.633465E-03   0.000000E+00
 
 
 SOLVING FOR HEAD 
                                                   Max.-Head-Change                         Max.-Flux-Residual
  Residual-Control   Outer-Iter.   Inner-Iter.     Column Row Layer    Maximum-Head-Change  Column Row Layer    Maximum-Flux-Residual          L2-NORM 
          0                 1           2             1    1     1      -0.3067522766E-01       2    5    1        -0.1152208224E-02      0.2076612907E-01
          0                 2           2             3    1     1       0.2857599290E-02       2    3    1         0.1152161483E-03      0.2018107317E-02
          0                 3           2             3    1     1      -0.2400454854E-03       2    3    1        -0.1036974994E-04      0.1877869423E-03
          0                 4           1             4    1     1       0.1796106263E-04      15    4    1        -0.9237096350E-06      0.1604217248E-04
          0                 5           1             4    1     1      -0.1174952225E-05      14    4    1         0.9168365978E-07      0.1206466517E-05
          0                 6           1             1    1     1       0.6643926256E-07      14    4    1        -0.6956884846E-08      0.7782414470E-07

    ------------------------------------------------
       NWT REQUIRED            6 OUTER ITERATIONS 
       AND A TOTAL OF          9 INNER ITERATIONS.
    ------------------------------------------------

 NO OUTPUT CONTROL FOR STRESS PERIOD   30   TIME STEP   19
 
 WELLS WITH REDUCED PUMPING FOR STRESS PERIOD    30 TIME STEP    19
   LAY   ROW   COL         APPL.Q          ACT.Q        GW-HEAD       CELL-BOT
     1     3    50  -0.509989E+00  -0.400565E+00   0.785280E-03   0.000000E+00
     1     5    55  -0.509989E+00  -0.308610E+00   0.633317E-03   0.000000E+00
 
 
 SOLVING FOR HEAD 
                                                   Max.-Head-Change                         Max.-Flux-Residual
  Residual-Control   Outer-Iter.   Inner-Iter.     Column Row Layer    Maximum-Head-Change  Column Row Layer    Maximum-Flux-Residual          L2-NORM 
          0                 1           2             1    1     1      -0.3372680265E-01       1    5    1        -0.1153303625E-02      0.2072136533E-01
          0                 2           2             2    1     1       0.3136402468E-02       1    5    1         0.1153257093E-03      0.2014346528E-02
          0                 3           2             2    1     1      -0.2627738677E-03       1    5    1        -0.1037971247E-04      0.1875921739E-03
          0                 4           1             1    1     1       0.1959550507E-04      15    4    1        -0.9363643372E-06      0.1605874079E-04
          0                 5           1             1    1     1      -0.1274363725E-05      15    4    1         0.9307402138E-07      0.1209521826E-05
          0                 6           1             1    1     1       0.7159927244E-07      15    4    1        -0.7045500183E-08      0.7817983716E-07

    ------------------------------------------------
       NWT REQUIRED            6 OUTER ITERATIONS 
       AND A TOTAL OF          9 INNER ITERATIONS.
    ------------------------------------------------

 NO OUTPUT CONTROL FOR STRESS PERIOD   30   TIME STEP   20
 
 WELLS WITH REDUCED PUMPING FOR STRESS PERIOD    30 TIME STEP    20
   LAY   ROW   COL         APPL.Q          ACT.Q        GW-HEAD       CELL-BOT
     1     3    50  -0.509985E+00  -0.400465E+00   0.785111E-03   0.000000E+00
     1     5    55  -0.509985E+00  -0.308475E+00   0.633121E-03   0.000000E+00
 
 
 SOLVING FOR HEAD 
                                                   Max.-Head-Change                         Max.-Flux-Residual
  Residual-Control   Outer-Iter.   Inner-Iter.     Column Row Layer    Maximum-Head-Change  Column Row Layer    Maximum-Flux-Residual          L2-NORM 
          0                 1           2             1    1     1      -0.3690046911E-01       1    5    1        -0.1152047524E-02      0.2062053151E-01
          0                 2           2             1    1     1       0.3420248368E-02       1    5    1         0.1151965381E-03      0.2009534527E-02
          0                 3           2             1    1     1      -0.2853983465E-03       1    3    1        -0.1036814829E-04      0.1877129911E-03
          0                 4           1             1    1     1       0.2118856244E-04      33    4    1        -0.9479915999E-06      0.1612454115E-04
          0                 5           1             1    1     1      -0.1367361859E-05      16    4    1         0.9359829534E-07      0.1216418484E-05
          0                 6           1             1    1     1       0.7623806438E-07      16    4    1        -0.7116302214E-08      0.7874962431E-07

    ------------------------------------------------
       NWT REQUIRED            6 OUTER ITERATIONS 
       AND A TOTAL OF          9 INNER ITERATIONS.
    ------------------------------------------------

 NO OUTPUT CONTROL FOR STRESS PERIOD   30   TIME STEP   21
 
 WELLS WITH REDUCED PUMPING FOR STRESS PERIOD    30 TIME STEP    21
   LAY   ROW   COL         APPL.Q          ACT.Q        GW-HEAD       CELL-BOT
     1     3    50  -0.510000E+00  -0.400288E+00   0.784782E-03   0.000000E+00
     1     5    55  -0.510000E+00  -0.308284E+00   0.632824E-03   0.000000E+00
 
 
 SOLVING FOR HEAD 
                                                   Max.-Head-Change                         Max.-Flux-Residual
  Residual-Control   Outer-Iter.   Inner-Iter.     Column Row Layer    Maximum-Head-Change  Column Row Layer    Maximum-Flux-Residual          L2-NORM 
          0                 1           2             1    1     1      -0.3954974287E-01       1    7    1        -0.1146006349E-02      0.2047075498E-01
          0                 2           2             1    1     1       0.3665396729E-02       1    1    1         0.1145844273E-03      0.2002518485E-02
          0                 3           2             1    1     1      -0.3056029357E-03       1    7    1        -0.1031304307E-04      0.1878842510E-03
          0                 4           1             1    1     1       0.2265327966E-04      16    4    1        -0.1098631969E-05      0.1619838307E-04
          0                 5           1             1    1     1      -0.1453038192E-05      16    4    1         0.1042205113E-06      0.1222506155E-05
          0                 6           1             1    1     1       0.8050742753E-07      16    4    1        -0.7712962713E-08      0.7915482227E-07

    ------------------------------------------------
       NWT REQUIRED            6 OUTER ITERATIONS 
       AND A TOTAL OF          9 INNER ITERATIONS.
    ------------------------------------------------

 NO OUTPUT CONTROL FOR STRESS PERIOD   30   TIME STEP   22
 
 WELLS WITH REDUCED PUMPING FOR STRESS PERIOD    30 TIME STEP    22
   LAY   ROW   COL         APPL.Q          ACT.Q        GW-HEAD       CELL-BOT
     1     3    50  -0.509996E+00  -0.400455E+00   0.785078E-03   0.000000E+00
     1     5    55  -0.509996E+00  -0.308468E+00   0.633100E-03   0.000000E+00
 
 
 SOLVING FOR HEAD 
                                                   Max.-Head-Change                         Max.-Flux-Residual
  Residual-Control   Outer-Iter.   Inner-Iter.     Column Row Layer    Maximum-Head-Change  Column Row Layer    Maximum-Flux-Residual          L2-NORM 
          0                 1           2             1    1     1      -0.4316198424E-01       1    7    1        -0.1116626984E-02      0.2013631797E-01
          0                 2           2             1    1     1       0.3985796441E-02       1    1    1         0.1116552587E-03      0.1967161666E-02
          0                 3           2             1    1     1      -0.3308925638E-03       1    7    1        -0.1004938016E-04      0.1844515266E-03
          0                 4           1             1    1     1       0.2439544039E-04      24    4    1        -0.1043041898E-05      0.1592778143E-04
          0                 5           1             1    1     1      -0.1546147330E-05      24    4    1         0.9874146301E-07      0.1201770036E-05
          0                 6           1             1    1     1       0.8459163569E-07      24    4    1        -0.7304581828E-08      0.7786584704E-07

    ------------------------------------------------
       NWT REQUIRED            6 OUTER ITERATIONS 
       AND A TOTAL OF          9 INNER ITERATIONS.
    ------------------------------------------------

 NO OUTPUT CONTROL FOR STRESS PERIOD   30   TIME STEP   23
 
 WELLS WITH REDUCED PUMPING FOR STRESS PERIOD    30 TIME STEP    23
   LAY   ROW   COL         APPL.Q          ACT.Q        GW-HEAD       CELL-BOT
     1     3    50  -0.510009E+00  -0.400532E+00   0.785194E-03   0.000000E+00
     1     5    55  -0.510009E+00  -0.308493E+00   0.633125E-03   0.000000E+00
 
 
 SOLVING FOR HEAD 
                                                   Max.-Head-Change                         Max.-Flux-Residual
  Residual-Control   Outer-Iter.   Inner-Iter.     Column Row Layer    Maximum-Head-Change  Column Row Layer    Maximum-Flux-Residual          L2-NORM 
          0                 1           3             1    1     1      -0.4737416689E-01       1    7    1        -0.1108168132E-02      0.1993853974E-01
          0                 2           2             1    1     1       0.4366235530E-02       1    7    1         0.1108119771E-03      0.1947016161E-02
          0                 3           2             1    1     1      -0.3615572524E-03       1    7    1        -0.9973503618E-05      0.1827115301E-03
          0                 4           1             1    1     1       0.2655903563E-04      32    4    1        -0.1087141296E-05      0.1581257784E-04
          0                 5           1             1    1     1      -0.1663414481E-05      32    4    1         0.1012089133E-06      0.1191573304E-05
          0                 6           1             1    1     1       0.8989722158E-07      32    4    1        -0.7374801214E-08      0.7716797279E-07

    ------------------------------------------------
       NWT REQUIRED            6 OUTER ITERATIONS 
       AND A TOTAL OF         10 INNER ITERATIONS.
    ------------------------------------------------

 NO OUTPUT CONTROL FOR STRESS PERIOD   30   TIME STEP   24
 
 WELLS WITH REDUCED PUMPING FOR STRESS PERIOD    30 TIME STEP    24
   LAY   ROW   COL         APPL.Q          ACT.Q        GW-HEAD       CELL-BOT
     1     3    50  -0.509998E+00  -0.400380E+00   0.784946E-03   0.000000E+00
     1     5    55  -0.509998E+00  -0.308325E+00   0.632887E-03   0.000000E+00
 
 
 SOLVING FOR HEAD 
                                                   Max.-Head-Change                         Max.-Flux-Residual
  Residual-Control   Outer-Iter.   Inner-Iter.     Column Row Layer    Maximum-Head-Change  Column Row Layer    Maximum-Flux-Residual          L2-NORM 
          0                 1           3             1    1     1      -0.5205086199E-01       1    7    1        -0.1105921291E-02      0.1978483918E-01
          0                 2           2             1    1     1       0.4789215985E-02       1    7    1         0.1105874244E-03      0.1931028930E-02
          0                 3           2             1    1     1      -0.3957058917E-03       1    7    1        -0.9953339060E-05      0.1812633679E-03
          0                 4           1             1    1     1       0.2896887347E-04      34    4    1        -0.1072584769E-05      0.1571239129E-04
          0                 5           1             1    1     1      -0.1790641494E-05      32    4    1         0.9988422534E-07      0.1181123785E-05
          0                 6           1             1    1     1       0.9549052432E-07      32    4    1        -0.7304825189E-08      0.7639999667E-07

    ------------------------------------------------
       NWT REQUIRED            6 OUTER ITERATIONS 
       AND A TOTAL OF         10 INNER ITERATIONS.
    ------------------------------------------------

 NO OUTPUT CONTROL FOR STRESS PERIOD   30   TIME STEP   25
 
 WELLS WITH REDUCED PUMPING FOR STRESS PERIOD    30 TIME STEP    25
   LAY   ROW   COL         APPL.Q          ACT.Q        GW-HEAD       CELL-BOT
     1     3    50  -0.510005E+00  -0.400134E+00   0.784506E-03   0.000000E+00
     1     5    55  -0.510005E+00  -0.308070E+00   0.632502E-03   0.000000E+00
 
 
 SOLVING FOR HEAD 
                                                   Max.-Head-Change                         Max.-Flux-Residual
  Residual-Control   Outer-Iter.   Inner-Iter.     Column Row Layer    Maximum-Head-Change  Column Row Layer    Maximum-Flux-Residual          L2-NORM 
          0                 1           3             1    1     1      -0.5719399388E-01       1    7    1        -0.1104787577E-02      0.1964896342E-01
          0                 2           2             1    1     1       0.5254280404E-02       1    7    1         0.1104735850E-03      0.1916795370E-02
          0                 3           2             1    1     1      -0.4332280802E-03       1    7    1        -0.9943148791E-05      0.1799760670E-03
          0                 4           1             1    1     1       0.3160583945E-04      32    4    1        -0.1011097275E-05      0.1562371617E-04
          0                 5           1             1    1     1      -0.1920927215E-05      32    4    1         0.9688369929E-07      0.1169642588E-05
          0                 6           1             1    1     1       0.1007415509E-06      20    4    1        -0.7230656962E-08      0.7548313715E-07

    ------------------------------------------------
       NWT REQUIRED            6 OUTER ITERATIONS 
       AND A TOTAL OF         10 INNER ITERATIONS.
    ------------------------------------------------

 NO OUTPUT CONTROL FOR STRESS PERIOD   30   TIME STEP   26
 
 WELLS WITH REDUCED PUMPING FOR STRESS PERIOD    30 TIME STEP    26
   LAY   ROW   COL         APPL.Q          ACT.Q        GW-HEAD       CELL-BOT
     1     3    50  -0.510003E+00  -0.399826E+00   0.783972E-03   0.000000E+00
     1     5    55  -0.510003E+00  -0.307756E+00   0.632040E-03   0.000000E+00
 
 
 SOLVING FOR HEAD 
                                                   Max.-Head-Change                         Max.-Flux-Residual
  Residual-Control   Outer-Iter.   Inner-Iter.     Column Row Layer    Maximum-Head-Change  Column Row Layer    Maximum-Flux-Residual          L2-NORM 
          0                 1           3             1    1     1      -0.6284039218E-01       1    7    1        -0.1103734675E-02      0.1952991328E-01
          0                 2           2             1    1     1       0.5764637520E-02       1    7    1         0.1103676639E-03      0.1903761877E-02
          0                 3           2             1    1     1      -0.4743674383E-03       1    7    1        -0.9933677806E-05      0.1787260439E-03
          0                 4           1             1    1     1       0.3448367248E-04      33    4    1        -0.9857780920E-06      0.1553460373E-04
          0                 5           1             1    1     1      -0.2052673907E-05      19    4    1         0.9664645262E-07      0.1156135394E-05
          0                 6           1             1    1     1       0.1054984974E-06      20    4    1        -0.7271143687E-08      0.7436107198E-07

    ------------------------------------------------
       NWT REQUIRED            6 OUTER ITERATIONS 
       AND A TOTAL OF         10 INNER ITERATIONS.
    ------------------------------------------------

 NO OUTPUT CONTROL FOR STRESS PERIOD   30   TIME STEP   27
 
 WELLS WITH REDUCED PUMPING FOR STRESS PERIOD    30 TIME STEP    27
   LAY   ROW   COL         APPL.Q          ACT.Q        GW-HEAD       CELL-BOT
     1     3    50  -0.510001E+00  -0.399463E+00   0.783342E-03   0.000000E+00
     1     5    55  -0.510001E+00  -0.307391E+00   0.631501E-03   0.000000E+00
 
 
 SOLVING FOR HEAD 
                                                   Max.-Head-Change                         Max.-Flux-Residual
  Residual-Control   Outer-Iter.   Inner-Iter.     Column Row Layer    Maximum-Head-Change  Column Row Layer    Maximum-Flux-Residual          L2-NORM 
          0                 1           3             1    1     1      -0.6903661813E-01       1    7    1        -0.1102586653E-02      0.1942738627E-01
          0                 2           2             1    1     1       0.6324465954E-02       1    7    1         0.1102521424E-03      0.1891919823E-02
          0                 3           2             1    1     1      -0.5194504105E-03       3    2    1        -0.9923815533E-05      0.1775418126E-03
          0                 4           1             1    1     1       0.3762003256E-04      33    4    1        -0.9921914526E-06      0.1544726207E-04
          0                 5           1             1    1     1      -0.2182097993E-05      20    4    1         0.9736619333E-07      0.1140823435E-05
          0                 6           1             1    1     1       0.1094327236E-06      20    4    1        -0.7306898198E-08      0.7308157827E-07

    ------------------------------------------------
       NWT REQUIRED            6 OUTER ITERATIONS 
       AND A TOTAL OF         10 INNER ITERATIONS.
    ------------------------------------------------

 NO OUTPUT CONTROL FOR STRESS PERIOD   30   TIME STEP   28
 
 WELLS WITH REDUCED PUMPING FOR STRESS PERIOD    30 TIME STEP    28
   LAY   ROW   COL         APPL.Q          ACT.Q        GW-HEAD       CELL-BOT
     1     3    50  -0.509991E+00  -0.399045E+00   0.782629E-03   0.000000E+00
     1     5    55  -0.509991E+00  -0.306974E+00   0.630894E-03   0.000000E+00
 
 
 SOLVING FOR HEAD 
                                                   Max.-Head-Change                         Max.-Flux-Residual
  Residual-Control   Outer-Iter.   Inner-Iter.     Column Row Layer    Maximum-Head-Change  Column Row Layer    Maximum-Flux-Residual          L2-NORM 
          0                 1           3             1    1     1      -0.7583434166E-01       1    7    1        -0.1101309447E-02      0.1933719456E-01
          0                 2           2             1    1     1       0.6938416213E-02       1    7    1         0.1101236182E-03      0.1881722802E-02
          0                 3           2             1    1     1      -0.5688384617E-03       4    3    1        -0.9916721726E-05      0.1765135743E-03
          0                 4           1             1    1     1       0.4103341033E-04      33    4    1        -0.9958741991E-06      0.1537280215E-04
          0                 5           1             1    1     1      -0.2304047238E-05       9    4    1         0.9641460963E-07      0.1124280962E-05
          0                 6           1             1    1     1       0.1121946201E-06       9    4    1        -0.7193005302E-08      0.7169922996E-07

    ------------------------------------------------
       NWT REQUIRED            6 OUTER ITERATIONS 
       AND A TOTAL OF         10 INNER ITERATIONS.
    ------------------------------------------------

 NO OUTPUT CONTROL FOR STRESS PERIOD   30   TIME STEP   29
 
 WELLS WITH REDUCED PUMPING FOR STRESS PERIOD    30 TIME STEP    29
   LAY   ROW   COL         APPL.Q          ACT.Q        GW-HEAD       CELL-BOT
     1     3    50  -0.510005E+00  -0.398576E+00   0.781794E-03   0.000000E+00
     1     5    55  -0.510005E+00  -0.306509E+00   0.630193E-03   0.000000E+00
 
 
 SOLVING FOR HEAD 
                                                   Max.-Head-Change                         Max.-Flux-Residual
  Residual-Control   Outer-Iter.   Inner-Iter.     Column Row Layer    Maximum-Head-Change  Column Row Layer    Maximum-Flux-Residual          L2-NORM 
          0                 1           3             1    1     1      -0.8328980870E-01       1    7    1        -0.1099887735E-02      0.1925672862E-01
          0                 2           2             1    1     1       0.7611546798E-02       1    7    1         0.1099805501E-03      0.1872572466E-02
          0                 3           2             1    1     1      -0.6229192748E-03       4    3    1        -0.9910904136E-05      0.1756292331E-03
          0                 4           1             3    1     1       0.4474495572E-04      33    4    1        -0.9986415517E-06      0.1530969757E-04
          0                 5           1             1    1     1      -0.2411590612E-05       9    4    1         0.9841636128E-07      0.1106447032E-05
          0                 6           1             1    1     1       0.1133640971E-06       9    4    1        -0.7231331978E-08      0.7025364964E-07

    ------------------------------------------------
       NWT REQUIRED            6 OUTER ITERATIONS 
       AND A TOTAL OF         10 INNER ITERATIONS.
    ------------------------------------------------

 OUTPUT CONTROL FOR STRESS PERIOD   30   TIME STEP   30
    PRINT HEAD FOR ALL LAYERS
    SAVE HEAD FOR ALL LAYERS
    PRINT BUDGET
    SAVE BUDGET
 
 WELLS WITH REDUCED PUMPING FOR STRESS PERIOD    30 TIME STEP    30
   LAY   ROW   COL         APPL.Q          ACT.Q        GW-HEAD       CELL-BOT
     1     3    50  -0.509997E+00  -0.398100E+00   0.780980E-03   0.000000E+00
     1     5    55  -0.509997E+00  -0.306038E+00   0.629506E-03   0.000000E+00

            WELLS   PERIOD   30   STEP  30
 WELL      1   LAYER   1   ROW     3   COL    50   RATE   -0.398100    
 WELL      2   LAYER   1   ROW     5   COL    55   RATE   -0.306038    
 

  HEAD DEP BOUNDS   PERIOD   30   STEP    30
 BOUNDARY      1   LAYER   1   ROW     1   COL   100   RATE    5.453522E-03
 BOUNDARY      2   LAYER   1   ROW     2   COL   100   RATE    5.398900E-03
 BOUNDARY      3   LAYER   1   ROW     3   COL   100   RATE    5.163610E-03
 BOUNDARY      4   LAYER   1   ROW     4   COL   100   RATE    1.554467E-03
 BOUNDARY      5   LAYER   1   ROW     5   COL   100   RATE    5.163610E-03
 BOUNDARY      6   LAYER   1   ROW     6   COL   100   RATE    5.398900E-03
 BOUNDARY      7   LAYER   1   ROW     7   COL   100   RATE    5.453522E-03



 STREAM LISTING     PERIOD     30   STEP       30

 LAYER ROW COL. STREAM  RCH.   FLOW INTO    STREAM     FLOW OUT OF   OVRLND.    DIRECT     STREAM      STREAM      STREAM     STREAM  STREAMBED   FLOW TO   CHNG. UNSAT. 
                SEG.NO.  NO.   STRM. RCH.    LOSS       STRM. RCH.   RUNOFF     PRECIP       ET         HEAD        DEPTH      WIDTH  CONDCTNC.   WAT. TAB.

   1    4    1     1     1    7.7100E+00  2.4041E-03   7.7076E+00  0.000E+00  0.000E+00  0.000E+00  1.41958E+02  2.108E+00  4.335E+00  9.217E-04  2.129E-03  2.749E-04
   1    4    2     1     2    7.7076E+00  2.4035E-03   7.7052E+00  0.000E+00  0.000E+00  0.000E+00  1.41658E+02  2.108E+00  4.335E+00  9.216E-04  2.129E-03  2.745E-04
   1    4    3     1     3    7.7052E+00  2.4029E-03   7.7028E+00  0.000E+00  0.000E+00  0.000E+00  1.41358E+02  2.108E+00  4.334E+00  9.214E-04  2.129E-03  2.742E-04
   1    4    4     1     4    7.7028E+00  2.4023E-03   7.7004E+00  0.000E+00  0.000E+00  0.000E+00  1.41057E+02  2.107E+00  4.334E+00  9.213E-04  2.128E-03  2.739E-04
   1    4    5     1     5    7.7004E+00  2.4017E-03   7.6980E+00  0.000E+00  0.000E+00  0.000E+00  1.40757E+02  2.107E+00  4.333E+00  9.212E-04  2.128E-03  2.735E-04
   1    4    6     1     6    7.6980E+00  2.4011E-03   7.6956E+00  0.000E+00  0.000E+00  0.000E+00  1.40457E+02  2.107E+00  4.333E+00  9.211E-04  2.128E-03  2.732E-04
   1    4    7     1     7    7.6956E+00  2.4005E-03   7.6932E+00  0.000E+00  0.000E+00  0.000E+00  1.40156E+02  2.106E+00  4.333E+00  9.210E-04  2.128E-03  2.728E-04
   1    4    8     1     8    7.6932E+00  2.3999E-03   7.6908E+00  0.000E+00  0.000E+00  0.000E+00  1.39856E+02  2.106E+00  4.332E+00  9.209E-04  2.128E-03  2.724E-04
   1    4    9     1     9    7.6908E+00  2.3993E-03   7.6884E+00  0.000E+00  0.000E+00  0.000E+00  1.39556E+02  2.106E+00  4.332E+00  9.208E-04  2.127E-03  2.720E-04
   1    4   10     1    10    7.6884E+00  2.3987E-03   7.6860E+00  0.000E+00  0.000E+00  0.000E+00  1.39255E+02  2.105E+00  4.331E+00  9.207E-04  2.127E-03  2.716E-04
   1    4   11     1    11    7.6860E+00  2.3981E-03   7.6836E+00  0.000E+00  0.000E+00  0.000E+00  1.38955E+02  2.105E+00  4.331E+00  9.206E-04  2.127E-03  2.711E-04
   1    4   12     1    12    7.6836E+00  2.3975E-03   7.6812E+00  0.000E+00  0.000E+00  0.000E+00  1.38655E+02  2.105E+00  4.331E+00  9.205E-04  2.127E-03  2.707E-04
   1    4   13     1    13    7.6812E+00  2.3969E-03   7.6788E+00  0.000E+00  0.000E+00  0.000E+00  1.38354E+02  2.104E+00  4.330E+00  9.203E-04  2.127E-03  2.702E-04
   1    4   14     1    14    7.6788E+00  2.3963E-03   7.6764E+00  0.000E+00  0.000E+00  0.000E+00  1.38054E+02  2.104E+00  4.330E+00  9.202E-04  2.127E-03  2.697E-04
   1    4   15     1    15    7.6764E+00  2.3957E-03   7.6740E+00  0.000E+00  0.000E+00  0.000E+00  1.37754E+02  2.104E+00  4.329E+00  9.201E-04  2.127E-03  2.692E-04
   1    4   16     1    16    7.6740E+00  2.3951E-03   7.6716E+00  0.000E+00  0.000E+00  0.000E+00  1.37453E+02  2.103E+00  4.329E+00  9.200E-04  2.126E-03  2.687E-04
   1    4   17     1    17    7.6716E+00  2.3945E-03   7.6692E+00  0.000E+00  0.000E+00  0.000E+00  1.37153E+02  2.103E+00  4.329E+00  9.199E-04  2.126E-03  2.681E-04
   1    4   18     1    18    7.6692E+00  2.3940E-03   7.6668E+00  0.000E+00  0.000E+00  0.000E+00  1.36853E+02  2.103E+00  4.328E+00  9.198E-04  2.126E-03  2.676E-04
   1    4   19     1    19    7.6668E+00  2.3934E-03   7.6644E+00  0.000E+00  0.000E+00  0.000E+00  1.36552E+02  2.102E+00  4.328E+00  9.197E-04  2.126E-03  2.669E-04
   1    4   20     1    20    7.6644E+00  2.3928E-03   7.6620E+00  0.000E+00  0.000E+00  0.000E+00  1.36252E+02  2.102E+00  4.327E+00  9.196E-04  2.126E-03  2.663E-04
   1    4   21     1    21    7.6620E+00  2.3922E-03   7.6596E+00  0.000E+00  0.000E+00  0.000E+00  1.35952E+02  2.102E+00  4.327E+00  9.195E-04  2.144E-03  2.478E-04
   1    4   22     1    22    7.6596E+00  2.3916E-03   7.6572E+00  0.000E+00  0.000E+00  0.000E+00  1.35651E+02  2.101E+00  4.327E+00  9.194E-04  2.145E-03  2.471E-04
   1    4   23     1    23    7.6572E+00  2.3910E-03   7.6549E+00  0.000E+00  0.000E+00  0.000E+00  1.35351E+02  2.101E+00  4.326E+00  9.192E-04  2.145E-03  2.462E-04
   1    4   24     1    24    7.6549E+00  2.3904E-03   7.6525E+00  0.000E+00  0.000E+00  0.000E+00  1.35051E+02  2.101E+00  4.326E+00  9.191E-04  2.145E-03  2.454E-04
   1    4   25     1    25    7.6525E+00  2.3898E-03   7.6501E+00  0.000E+00  0.000E+00  0.000E+00  1.34750E+02  2.100E+00  4.325E+00  9.190E-04  2.145E-03  2.445E-04
   1    4   26     1    26    7.6501E+00  2.3892E-03   7.6477E+00  0.000E+00  0.000E+00  0.000E+00  1.34450E+02  2.100E+00  4.325E+00  9.189E-04  2.146E-03  2.435E-04
   1    4   27     1    27    7.6477E+00  2.3886E-03   7.6453E+00  0.000E+00  0.000E+00  0.000E+00  1.34150E+02  2.100E+00  4.325E+00  9.188E-04  2.146E-03  2.425E-04
   1    4   28     1    28    7.6453E+00  2.3880E-03   7.6429E+00  0.000E+00  0.000E+00  0.000E+00  1.33849E+02  2.099E+00  4.324E+00  9.187E-04  2.147E-03  2.414E-04
   1    4   29     1    29    7.6429E+00  2.3874E-03   7.6405E+00  0.000E+00  0.000E+00  0.000E+00  1.33549E+02  2.099E+00  4.324E+00  9.186E-04  2.147E-03  2.403E-04
   1    4   30     1    30    7.6405E+00  2.3868E-03   7.6381E+00  0.000E+00  0.000E+00  0.000E+00  1.33249E+02  2.099E+00  4.323E+00  9.185E-04  2.148E-03  2.390E-04
   1    4   31     1    31    7.6381E+00  2.3862E-03   7.6358E+00  0.000E+00  0.000E+00  0.000E+00  1.32948E+02  2.098E+00  4.323E+00  9.184E-04  2.150E-03  2.366E-04
   1    4   32     1    32    7.6358E+00  2.3856E-03   7.6334E+00  0.000E+00  0.000E+00  0.000E+00  1.32648E+02  2.098E+00  4.323E+00  9.183E-04  2.151E-03  2.350E-04
   1    4   33     1    33    7.6334E+00  2.3851E-03   7.6310E+00  0.000E+00  0.000E+00  0.000E+00  1.32348E+02  2.098E+00  4.322E+00  9.182E-04  2.181E-03  2.037E-04
   1    4   34     1    34    7.6310E+00  2.3845E-03   7.6286E+00  0.000E+00  0.000E+00  0.000E+00  1.32047E+02  2.097E+00  4.322E+00  9.180E-04  2.183E-03  2.019E-04
   1    4   35     1    35    7.6286E+00  2.3839E-03   7.6262E+00  0.000E+00  0.000E+00  0.000E+00  1.31747E+02  2.097E+00  4.321E+00  9.179E-04  2.184E-03  2.000E-04
   1    4   36     1    36    7.6262E+00  2.3833E-03   7.6238E+00  0.000E+00  0.000E+00  0.000E+00  1.31447E+02  2.097E+00  4.321E+00  9.178E-04  2.185E-03  1.979E-04
   1    4   37     1    37    7.6238E+00  2.3827E-03   7.6214E+00  0.000E+00  0.000E+00  0.000E+00  1.31146E+02  2.096E+00  4.321E+00  9.177E-04  2.187E-03  1.957E-04
   1    4   38     1    38    7.6214E+00  2.3821E-03   7.6191E+00  0.000E+00  0.000E+00  0.000E+00  1.30846E+02  2.096E+00  4.320E+00  9.176E-04  2.189E-03  1.933E-04
   1    4   39     1    39    7.6191E+00  2.3815E-03   7.6167E+00  0.000E+00  0.000E+00  0.000E+00  1.30546E+02  2.096E+00  4.320E+00  9.175E-04  2.191E-03  1.907E-04
   1    4   40     1    40    7.6167E+00  2.3809E-03   7.6143E+00  0.000E+00  0.000E+00  0.000E+00  1.30245E+02  2.095E+00  4.319E+00  9.174E-04  2.258E-03  1.231E-04
   1    4   41     1    41    7.6143E+00  2.3803E-03   7.6119E+00  0.000E+00  0.000E+00  0.000E+00  1.29945E+02  2.095E+00  4.319E+00  9.173E-04  2.261E-03  1.198E-04
   1    4   42     1    42    7.6119E+00  2.3797E-03   7.6095E+00  0.000E+00  0.000E+00  0.000E+00  1.29645E+02  2.095E+00  4.319E+00  9.172E-04  2.264E-03  1.161E-04
   1    4   43     1    43    7.6095E+00  2.3791E-03   7.6072E+00  0.000E+00  0.000E+00  0.000E+00  1.29344E+02  2.094E+00  4.318E+00  9.171E-04  2.267E-03  1.122E-04
   1    4   44     1    44    7.6072E+00  2.3786E-03   7.6048E+00  0.000E+00  0.000E+00  0.000E+00  1.29044E+02  2.094E+00  4.318E+00  9.170E-04  2.271E-03  1.080E-04
   1    4   45     1    45    7.6048E+00  2.3780E-03   7.6024E+00  0.000E+00  0.000E+00  0.000E+00  1.28744E+02  2.094E+00  4.317E+00  9.168E-04  2.275E-03  1.033E-04
   1    4   46     1    46    7.6024E+00  2.3774E-03   7.6000E+00  0.000E+00  0.000E+00  0.000E+00  1.28443E+02  2.093E+00  4.317E+00  9.167E-04  2.279E-03  9.821E-05
   1    4   47     1    47    7.6000E+00  2.3768E-03   7.5977E+00  0.000E+00  0.000E+00  0.000E+00  1.28143E+02  2.093E+00  4.317E+00  9.166E-04  2.284E-03  9.232E-05
   1    4   48     1    48    7.5977E+00  2.3762E-03   7.5953E+00  0.000E+00  0.000E+00  0.000E+00  1.27843E+02  2.093E+00  4.316E+00  9.165E-04  2.291E-03  8.480E-05
   1    4   49     1    49    7.5953E+00  2.3756E-03   7.5929E+00  0.000E+00  0.000E+00  0.000E+00  1.27542E+02  2.092E+00  4.316E+00  9.164E-04  2.228E-03  1.476E-04
   1    4   50     1    50    7.5929E+00  2.3750E-03   7.5905E+00  0.000E+00  0.000E+00  0.000E+00  1.27242E+02  2.092E+00  4.315E+00  9.163E-04  2.050E-03  3.249E-04
   1    4   51     1    51    7.5905E+00  2.3744E-03   7.5882E+00  0.000E+00  0.000E+00  0.000E+00  1.26942E+02  2.092E+00  4.315E+00  9.162E-04  2.022E-03  3.529E-04
   1    4   52     1    52    7.5882E+00  2.3738E-03   7.5858E+00  0.000E+00  0.000E+00  0.000E+00  1.26641E+02  2.091E+00  4.315E+00  9.161E-04  2.038E-03  3.363E-04
   1    4   53     1    53    7.5858E+00  2.3732E-03   7.5834E+00  0.000E+00  0.000E+00  0.000E+00  1.26341E+02  2.091E+00  4.314E+00  9.160E-04  2.038E-03  3.357E-04
   1    4   54     1    54    7.5834E+00  2.3726E-03   7.5810E+00  0.000E+00  0.000E+00  0.000E+00  1.26041E+02  2.091E+00  4.314E+00  9.159E-04  2.022E-03  3.502E-04
   1    4   55     1    55    7.5810E+00  2.3721E-03   7.5787E+00  0.000E+00  0.000E+00  0.000E+00  1.25740E+02  2.090E+00  4.313E+00  9.157E-04  2.060E-03  3.123E-04
   1    4   56     1    56    7.5787E+00  2.3715E-03   7.5763E+00  0.000E+00  0.000E+00  0.000E+00  1.25440E+02  2.090E+00  4.313E+00  9.156E-04  2.210E-03  1.617E-04
   1    4   57     1    57    7.5763E+00  2.3709E-03   7.5739E+00  0.000E+00  0.000E+00  0.000E+00  1.25140E+02  2.090E+00  4.313E+00  9.155E-04  2.286E-03  8.517E-05
   1    4   58     1    58    7.5739E+00  2.3703E-03   7.5715E+00  0.000E+00  0.000E+00  0.000E+00  1.24839E+02  2.089E+00  4.312E+00  9.154E-04  2.277E-03  9.298E-05
   1    4   59     1    59    7.5715E+00  2.3697E-03   7.5692E+00  0.000E+00  0.000E+00  0.000E+00  1.24539E+02  2.089E+00  4.312E+00  9.153E-04  2.271E-03  9.920E-05
   1    4   60     1    60    7.5692E+00  2.3691E-03   7.5668E+00  0.000E+00  0.000E+00  0.000E+00  1.24239E+02  2.089E+00  4.311E+00  9.152E-04  2.265E-03  1.042E-04
   1    4   61     1    61    7.5668E+00  2.3685E-03   7.5644E+00  0.000E+00  0.000E+00  0.000E+00  1.23938E+02  2.088E+00  4.311E+00  9.151E-04  2.260E-03  1.085E-04
   1    4   62     1    62    7.5644E+00  2.3679E-03   7.5621E+00  0.000E+00  0.000E+00  0.000E+00  1.23638E+02  2.088E+00  4.311E+00  9.150E-04  2.256E-03  1.123E-04
   1    4   63     1    63    7.5621E+00  2.3673E-03   7.5597E+00  0.000E+00  0.000E+00  0.000E+00  1.23338E+02  2.088E+00  4.310E+00  9.149E-04  2.252E-03  1.156E-04
   1    4   64     1    64    7.5597E+00  2.3668E-03   7.5573E+00  0.000E+00  0.000E+00  0.000E+00  1.23037E+02  2.087E+00  4.310E+00  9.148E-04  2.248E-03  1.184E-04
   1    4   65     1    65    7.5573E+00  2.3662E-03   7.5550E+00  0.000E+00  0.000E+00  0.000E+00  1.22737E+02  2.087E+00  4.309E+00  9.147E-04  2.245E-03  1.209E-04
   1    4   66     1    66    7.5550E+00  2.3656E-03   7.5526E+00  0.000E+00  0.000E+00  0.000E+00  1.22437E+02  2.087E+00  4.309E+00  9.145E-04  2.178E-03  1.874E-04
   1    4   67     1    67    7.5526E+00  2.3650E-03   7.5502E+00  0.000E+00  0.000E+00  0.000E+00  1.22136E+02  2.086E+00  4.309E+00  9.144E-04  2.176E-03  1.885E-04
   1    4   68     1    68    7.5502E+00  2.3644E-03   7.5479E+00  0.000E+00  0.000E+00  0.000E+00  1.21836E+02  2.086E+00  4.308E+00  9.143E-04  2.175E-03  1.896E-04
   1    4   69     1    69    7.5479E+00  2.3638E-03   7.5455E+00  0.000E+00  0.000E+00  0.000E+00  1.21536E+02  2.086E+00  4.308E+00  9.142E-04  2.173E-03  1.904E-04
   1    4   70     1    70    7.5455E+00  2.3632E-03   7.5431E+00  0.000E+00  0.000E+00  0.000E+00  1.21235E+02  2.085E+00  4.307E+00  9.141E-04  2.172E-03  1.909E-04
   1    4   71     1    71    7.5431E+00  2.3626E-03   7.5408E+00  0.000E+00  0.000E+00  0.000E+00  1.20935E+02  2.085E+00  4.307E+00  9.140E-04  2.172E-03  1.911E-04
   1    4   72     1    72    7.5408E+00  2.3621E-03   7.5384E+00  0.000E+00  0.000E+00  0.000E+00  1.20635E+02  2.085E+00  4.307E+00  9.139E-04  2.171E-03  1.911E-04
   1    4   73     1    73    7.5384E+00  2.3615E-03   7.5361E+00  0.000E+00  0.000E+00  0.000E+00  1.20334E+02  2.084E+00  4.306E+00  9.138E-04  2.171E-03  1.909E-04
   1    4   74     1    74    7.5361E+00  2.3609E-03   7.5337E+00  0.000E+00  0.000E+00  0.000E+00  1.20034E+02  2.084E+00  4.306E+00  9.137E-04  2.171E-03  1.904E-04
   1    4   75     1    75    7.5337E+00  2.3603E-03   7.5313E+00  0.000E+00  0.000E+00  0.000E+00  1.19734E+02  2.084E+00  4.305E+00  9.136E-04  2.162E-03  1.986E-04
   1    4   76     1    76    7.5313E+00  2.3597E-03   7.5290E+00  0.000E+00  0.000E+00  0.000E+00  1.19433E+02  2.083E+00  4.305E+00  9.135E-04  2.144E-03  2.153E-04
   1    4   77     1    77    7.5290E+00  2.3591E-03   7.5266E+00  0.000E+00  0.000E+00  0.000E+00  1.19133E+02  2.083E+00  4.305E+00  9.133E-04  2.145E-03  2.140E-04
   1    4   78     1    78    7.5266E+00  2.3585E-03   7.5243E+00  0.000E+00  0.000E+00  0.000E+00  1.18833E+02  2.083E+00  4.304E+00  9.132E-04  2.146E-03  2.125E-04
   1    4   79     1    79    7.5243E+00  2.3580E-03   7.5219E+00  0.000E+00  0.000E+00  0.000E+00  1.18532E+02  2.082E+00  4.304E+00  9.131E-04  2.147E-03  2.109E-04
   1    4   80     1    80    7.5219E+00  2.3574E-03   7.5195E+00  0.000E+00  0.000E+00  0.000E+00  1.18232E+02  2.082E+00  4.303E+00  9.130E-04  2.148E-03  2.090E-04
   1    4   81     1    81    7.5195E+00  2.3568E-03   7.5172E+00  0.000E+00  0.000E+00  0.000E+00  1.17932E+02  2.082E+00  4.303E+00  9.129E-04  2.150E-03  2.070E-04
   1    4   82     1    82    7.5172E+00  2.3562E-03   7.5148E+00  0.000E+00  0.000E+00  0.000E+00  1.17631E+02  2.081E+00  4.303E+00  9.128E-04  2.151E-03  2.048E-04
   1    4   83     1    83    7.5148E+00  2.3556E-03   7.5125E+00  0.000E+00  0.000E+00  0.000E+00  1.17331E+02  2.081E+00  4.302E+00  9.127E-04  2.134E-03  2.215E-04
   1    4   84     1    84    7.5125E+00  2.3550E-03   7.5101E+00  0.000E+00  0.000E+00  0.000E+00  1.17031E+02  2.081E+00  4.302E+00  9.126E-04  2.136E-03  2.190E-04
   1    4   85     1    85    7.5101E+00  2.3544E-03   7.5078E+00  0.000E+00  0.000E+00  0.000E+00  1.16730E+02  2.080E+00  4.301E+00  9.125E-04  2.138E-03  2.164E-04
   1    4   86     1    86    7.5078E+00  2.3538E-03   7.5054E+00  0.000E+00  0.000E+00  0.000E+00  1.16430E+02  2.080E+00  4.301E+00  9.124E-04  2.140E-03  2.137E-04
   1    4   87     1    87    7.5054E+00  2.3533E-03   7.5031E+00  0.000E+00  0.000E+00  0.000E+00  1.16130E+02  2.080E+00  4.301E+00  9.123E-04  2.142E-03  2.109E-04
   1    4   88     1    88    7.5031E+00  2.3527E-03   7.5007E+00  0.000E+00  0.000E+00  0.000E+00  1.15829E+02  2.079E+00  4.300E+00  9.122E-04  2.145E-03  2.080E-04
   1    4   89     1    89    7.5007E+00  2.3521E-03   7.4984E+00  0.000E+00  0.000E+00  0.000E+00  1.15529E+02  2.079E+00  4.300E+00  9.120E-04  2.147E-03  2.051E-04
   1    4   90     1    90    7.4984E+00  2.3515E-03   7.4960E+00  0.000E+00  0.000E+00  0.000E+00  1.15229E+02  2.079E+00  4.299E+00  9.119E-04  2.149E-03  2.022E-04
   1    4   91     1    91    7.4960E+00  2.3509E-03   7.4937E+00  0.000E+00  0.000E+00  0.000E+00  1.14928E+02  2.078E+00  4.299E+00  9.118E-04  2.152E-03  1.992E-04
   1    4   92     1    92    7.4937E+00  2.3503E-03   7.4913E+00  0.000E+00  0.000E+00  0.000E+00  1.14628E+02  2.078E+00  4.299E+00  9.117E-04  2.154E-03  1.963E-04
   1    4   93     1    93    7.4913E+00  2.3498E-03   7.4890E+00  0.000E+00  0.000E+00  0.000E+00  1.14328E+02  2.078E+00  4.298E+00  9.116E-04  2.156E-03  1.933E-04
   1    4   94     1    94    7.4890E+00  2.3492E-03   7.4866E+00  0.000E+00  0.000E+00  0.000E+00  1.14027E+02  2.077E+00  4.298E+00  9.115E-04  2.159E-03  1.905E-04
   1    4   95     1    95    7.4866E+00  2.3486E-03   7.4843E+00  0.000E+00  0.000E+00  0.000E+00  1.13727E+02  2.077E+00  4.297E+00  9.114E-04  2.161E-03  1.877E-04
   1    4   96     1    96    7.4843E+00  2.3480E-03   7.4819E+00  0.000E+00  0.000E+00  0.000E+00  1.13427E+02  2.077E+00  4.297E+00  9.113E-04  2.163E-03  1.850E-04
   1    4   97     1    97    7.4819E+00  2.3474E-03   7.4796E+00  0.000E+00  0.000E+00  0.000E+00  1.13126E+02  2.076E+00  4.297E+00  9.112E-04  2.165E-03  1.823E-04
   1    4   98     1    98    7.4796E+00  2.3468E-03   7.4772E+00  0.000E+00  0.000E+00  0.000E+00  1.12826E+02  2.076E+00  4.296E+00  9.111E-04  2.167E-03  1.798E-04
   1    4   99     1    99    7.4772E+00  2.3462E-03   7.4749E+00  0.000E+00  0.000E+00  0.000E+00  1.12526E+02  2.076E+00  4.296E+00  9.110E-04  2.169E-03  1.773E-04
   1    4  100     1   100    7.4749E+00  2.3457E-03   7.4725E+00  0.000E+00  0.000E+00  0.000E+00  1.12225E+02  2.075E+00  4.295E+00  9.108E-04  2.171E-03  1.748E-04



1
  VOLUMETRIC BUDGET FOR UNSATURATED ZONE BENEATH STREAMS AT END OF TIME STEP    30 STRESS PERIOD  30
  ------------------------------------------------------------------------------------------------

    CUMULATIVE VOLUMES             L**3    RATES FOR THIS TIME STEP         L**3/T
    ------------------                     ------------------------


          STREAM LOSS =     28854238.0000            STREAM LOSS =            0.2375
    CHANGE IN STORAGE =      1478370.5000      CHANGE IN STORAGE =        2.0896E-02
       RECHARGE TO GW =     27382996.0000         RECHARGE TO GW =            0.2166

             TOTAL IN =     28854238.0000               TOTAL IN =            0.2375

            TOTAL OUT =     28861366.0000              TOTAL OUT =            0.2375

             IN - OUT =        -7128.0000               IN - OUT =       -2.9802E-08

  PERCENT DISCREPANCY =           -0.01      PERCENT DISCREPANCY =            -0.00



1
              HEAD IN LAYER   1 AT END OF TIME STEP  30 IN STRESS PERIOD   30
  ---------------------------------------------------------------------------

          1      2      3      4      5      6      7      8      9     10
         11     12     13     14     15     16     17     18     19     20
         21     22     23     24     25     26     27     28     29     30
         31     32     33     34     35     36     37     38     39     40
         41     42     43     44     45     46     47     48     49     50
         51     52     53     54     55     56     57     58     59     60
         61     62     63     64     65     66     67     68     69     70
         71     72     73     74     75     76     77     78     79     80
         81     82     83     84     85     86     87     88     89     90
         91     92     93     94     95     96     97     98     99    100
 .........................................................................
   1    94.4   94.4   94.3   94.2   94.0   93.8   93.5   93.2   92.9   92.5
        92.1   91.6   91.1   90.6   89.9   89.3   88.6   87.8   87.0   86.2
        85.3   84.3   83.3   82.2   81.1   79.9   78.7   77.4   76.0   74.5
        73.0   71.3   69.6   67.9   66.0   64.0   61.9   59.7   57.3   54.8
        52.1   49.3   46.2   42.8   39.2   35.1   30.4   24.9   18.2   10.5
         9.4    9.8   10.2   10.9   13.1   17.5   22.1   26.3   30.1   33.5
        36.6   39.3   41.9   44.2   46.4   48.4   50.3   52.1   53.8   55.3
        56.8   58.1   59.4   60.6   61.8   62.8   63.8   64.8   65.6   66.5
        67.2   67.9   68.6   69.2   69.8   70.4   70.9   71.4   71.8   72.2
        72.6   72.9   73.3   73.6   73.8   74.1   74.4   74.6   74.8   75.0
   2    94.4   94.4   94.3   94.2   94.0   93.8   93.5   93.2   92.9   92.5
        92.1   91.6   91.1   90.6   89.9   89.3   88.6   87.8   87.0   86.2
        85.3   84.3   83.3   82.2   81.1   79.9   78.7   77.4   76.0   74.5
        73.0   71.3   69.6   67.9   66.0   64.0   61.9   59.7   57.3   54.8
        52.1   49.3   46.2   42.8   39.2   35.1   30.5   25.0   17.9    8.0
         9.1    9.8   10.1   10.6   12.3   17.1   22.0   26.3   30.1   33.5
        36.6   39.3   41.9   44.2   46.4   48.4   50.3   52.1   53.8   55.3
        56.8   58.1   59.4   60.6   61.8   62.8   63.8   64.8   65.6   66.5
        67.2   68.0   68.6   69.3   69.8   70.4   70.9   71.4   71.8   72.2
        72.6   72.9   73.3   73.6   73.9   74.1   74.4   74.6   74.8   75.0
   3    94.4   94.4   94.3   94.2   94.0   93.8   93.5   93.2   92.9   92.5
        92.1   91.6   91.1   90.6   90.0   89.3   88.6   87.8   87.0   86.2
        85.3   84.3   83.3   82.3   81.1   79.9   78.7   77.4   76.0   74.5
        73.0   71.4   69.7   67.9   66.0   64.0   61.9   59.7   57.3   54.8
        52.1   49.3   46.2   42.9   39.2   35.1   30.5   25.0   17.5    0.0
         8.8    9.9    9.9    9.9   10.5   16.5   21.8   26.3   30.1   33.5
        36.6   39.4   41.9   44.3   46.4   48.5   50.3   52.1   53.8   55.3
        56.8   58.2   59.4   60.6   61.8   62.8   63.8   64.8   65.6   66.5
        67.2   68.0   68.6   69.3   69.8   70.4   70.9   71.4   71.8   72.2
        72.6   72.9   73.3   73.6   73.9   74.1   74.4   74.6   74.8   75.0
   4    94.4   94.4   94.3   94.2   94.0   93.8   93.5   93.2   92.9   92.5
        92.1   91.6   91.1   90.6   90.0   89.3   88.6   87.9   87.1   86.2
        85.3   84.3   83.3   82.3   81.1   79.9   78.7   77.4   76.0   74.5
        73.0   71.4   69.7   67.9   66.0   64.0   61.9   59.7   57.3   54.8
        52.1   49.3   46.2   42.9   39.2   35.2   30.6   25.2   18.3    8.3
         9.8   10.1    9.8    9.1    7.2   15.8   21.7   26.3   30.1   33.5
        36.6   39.4   41.9   44.3   46.4   48.5   50.4   52.1   53.8   55.3
        56.8   58.2   59.4   60.6   61.8   62.8   63.8   64.8   65.7   66.5
        67.2   68.0   68.6   69.3   69.8   70.4   70.9   71.4   71.8   72.2
        72.6   72.9   73.3   73.6   73.9   74.1   74.4   74.6   74.8   75.0
   5    94.4   94.4   94.3   94.2   94.0   93.8   93.5   93.2   92.9   92.5
        92.1   91.6   91.1   90.6   90.0   89.3   88.6   87.8   87.0   86.2
        85.3   84.3   83.3   82.3   81.1   79.9   78.7   77.4   76.0   74.5
        73.0   71.4   69.7   67.9   66.0   64.0   61.9   59.7   57.3   54.8
        52.1   49.3   46.2   42.9   39.2   35.2   30.6   25.4   19.1   12.0
        10.7   10.3    9.7    8.3    0.0   15.1   21.5   26.2   30.1   33.5
        36.6   39.4   41.9   44.3   46.4   48.5   50.3   52.1   53.8   55.3
        56.8   58.2   59.4   60.6   61.8   62.8   63.8   64.8   65.6   66.5
        67.2   68.0   68.6   69.3   69.8   70.4   70.9   71.4   71.8   72.2
        72.6   72.9   73.3   73.6   73.9   74.1   74.4   74.6   74.8   75.0
   6    94.4   94.4   94.3   94.2   94.0   93.8   93.5   93.2   92.9   92.5
        92.1   91.6   91.1   90.6   89.9   89.3   88.6   87.8   87.0   86.2
        85.3   84.3   83.3   82.2   81.1   79.9   78.7   77.4   76.0   74.5
        73.0   71.3   69.6   67.9   66.0   64.0   61.9   59.7   57.3   54.8
        52.1   49.3   46.2   42.9   39.2   35.2   30.7   25.6   19.8   14.1
        11.6   10.5    9.7    8.5    7.0   15.4   21.5   26.1   30.1   33.5
        36.6   39.3   41.9   44.2   46.4   48.4   50.3   52.1   53.8   55.3
        56.8   58.1   59.4   60.6   61.8   62.8   63.8   64.8   65.6   66.5
        67.2   68.0   68.6   69.3   69.8   70.4   70.9   71.4   71.8   72.2
        72.6   72.9   73.3   73.6   73.9   74.1   74.4   74.6   74.8   75.0
   7    94.4   94.4   94.3   94.2   94.0   93.8   93.5   93.2   92.9   92.5
        92.1   91.6   91.1   90.6   89.9   89.3   88.6   87.8   87.0   86.2
        85.3   84.3   83.3   82.2   81.1   79.9   78.7   77.4   76.0   74.5
        73.0   71.3   69.6   67.9   66.0   64.0   61.9   59.7   57.3   54.8
        52.1   49.3   46.2   42.8   39.2   35.2   30.7   25.7   20.2   14.9
        12.0   10.6    9.7    8.8    9.2   15.7   21.4   26.1   30.1   33.5
        36.6   39.3   41.9   44.2   46.4   48.4   50.3   52.1   53.8   55.3
        56.8   58.1   59.4   60.6   61.8   62.8   63.8   64.8   65.6   66.5
        67.2   67.9   68.6   69.2   69.8   70.4   70.9   71.4   71.8   72.2
        72.6   72.9   73.3   73.6   73.8   74.1   74.4   74.6   74.8   75.0

 HEAD WILL BE SAVED ON UNIT   51 AT END OF TIME STEP   30, STRESS PERIOD   30
1
  VOLUMETRIC BUDGET FOR ENTIRE MODEL AT END OF TIME STEP   30, STRESS PERIOD  30
  ------------------------------------------------------------------------------

     CUMULATIVE VOLUMES      L**3       RATES FOR THIS TIME STEP      L**3/T
     ------------------                 ------------------------

           IN:                                      IN:
           ---                                      ---
             STORAGE     =    99791424.0000               STORAGE     =           0.4540
       CONSTANT HEAD     =           0.0000         CONSTANT HEAD     =           0.0000
               WELLS     =           0.0000                 WELLS     =           0.0000
     HEAD DEP BOUNDS     =      248937.0000       HEAD DEP BOUNDS     =       3.3587E-02
      STREAM LEAKAGE     =    27382680.0000        STREAM LEAKAGE     =           0.2166

                TOTAL IN =   127423040.0000                  TOTAL IN =           0.7041

          OUT:                                     OUT:
          ----                                     ----
             STORAGE     =     3027575.0000               STORAGE     =           0.0000
       CONSTANT HEAD     =           0.0000         CONSTANT HEAD     =           0.0000
               WELLS     =   108036088.0000                 WELLS     =           0.7041
     HEAD DEP BOUNDS     =    16359348.0000       HEAD DEP BOUNDS     =           0.0000
      STREAM LEAKAGE     =           0.0000        STREAM LEAKAGE     =           0.0000

               TOTAL OUT =   127423008.0000                 TOTAL OUT =           0.7041

                IN - OUT =          32.0000                  IN - OUT =           0.0000

     PERCENT DISCREPANCY =           0.00         PERCENT DISCREPANCY =           0.00






         TIME SUMMARY AT END OF TIME STEP   30 IN STRESS PERIOD   30
                    SECONDS     MINUTES      HOURS       DAYS        YEARS
                    -----------------------------------------------------------
   TIME STEP LENGTH 2.49961E+05  4166.0      69.434      2.8931     7.92080E-03
 STRESS PERIOD TIME 2.59200E+06  43200.      720.00      30.000     8.21355E-02
         TOTAL TIME 7.77600E+07 1.29600E+06  21600.      900.00      2.4641    
1
1
                            STRESS PERIOD NO.   31, LENGTH =   2592000.    
                            -----------------------------------------------

                              NUMBER OF TIME STEPS =    30

                               MULTIPLIER FOR DELT =     1.100

                            INITIAL TIME STEP SIZE =   15757.40    

 REUSING NON-PARAMETER WELLS FROM LAST STRESS PERIOD

      1 WELL 

 REUSING NON-PARAMETER GHB CELLS FROM LAST STRESS PERIOD

      7 GHB CELLS



 CLASSIFICATION & COUNT OF STREAM SEGMENTS BASED ON SOURCE OF INFLOW:

                HEADWATER     DIVERSION     RECEIVES TRIBUTARY FLOW
                ---------     ---------     -----------------------
                     1              0               0



                    INPUT DATA FOR EACH STREAM SEGMENT
 ---------------------------------------------------------------------------------------------

 SEGMENT    SEG.     INFLOW   OVERLAND   STREAM    STREAM   ICALC  OUTFLOW  DIVERSION PRIORITY
    NO.    LENGTH     RATE     RUNOFF      ET       PPT.    METH.  TO SEG.  FROM SEG.    NO.

      1  2.000E+04 5.460E+00 0.000E+00 0.000E+00 0.000E+00    2        0        0        0


         STREAMBED PROPERTIES AND STREAM DIMENSIONS

 SEGMENT     BED HYD. COND.      BED THICKNESS     ELEV.-TOP OF BED     WIDTH OF STREAM     DEPTH OF STREAM    STREAM ROUGHNESS
    No.     UPPER     LOWER     UPPER     LOWER     UPPER     LOWER     UPPER     LOWER     UPPER     LOWER   CHANNEL      BANK

     1  3.500E-07 3.500E-07                                                                                 3.000E-02 4.000E-02

  EIGHT POINT CROSS-SECTION DATA FOR SEGMENTS WITH ICALC = 2
    X VALUES X VALUES START FROM LEFT SIDE LOOKING DOWNSTREAM

     SEGMENT NO.        X1        X2        X3        X4        X5        X6        X7        X8
            1      0.000E+00 2.000E+00 4.000E+00 6.000E+00 8.000E+00 1.000E+01 1.200E+01 1.400E+01

    Z VALUES ARE RELATIVE TO STREAMBED ELEVATION

     SEGMENT NO.          Z1        Z2        Z3        Z4        Z5        Z6        Z7        Z8
            1      6.000E+00 4.500E+00 3.500E+00 0.000E+00 3.000E-01 3.500E+00 4.500E+00 6.000E+00



 
 SOLVING FOR HEAD 
                                                   Max.-Head-Change                         Max.-Flux-Residual
  Residual-Control   Outer-Iter.   Inner-Iter.     Column Row Layer    Maximum-Head-Change  Column Row Layer    Maximum-Flux-Residual          L2-NORM 
          0                 1           2             1    1     1      -0.5278788907E-02      50    3    1        -0.2261323506E+00      0.2858736168E+00
          0                 2           2             1    1     1       0.5138225715E-03      50    3    1         0.5601470622E-01      0.5918692394E-01
          0                 3           1             1    1     1      -0.4522370500E-04      50    3    1        -0.5436376187E-02      0.5745102077E-02
          0                 4           1             1    1     1       0.3556325975E-05      50    3    1         0.4356173227E-03      0.4599969325E-03
          0                 5           1             1    1     1      -0.2462142986E-06      50    3    1        -0.3062471506E-04      0.3234117244E-04

    ------------------------------------------------
       NWT REQUIRED            5 OUTER ITERATIONS 
       AND A TOTAL OF          7 INNER ITERATIONS.
    ------------------------------------------------

 NO OUTPUT CONTROL FOR STRESS PERIOD   31   TIME STEP    1
 
 WELLS WITH REDUCED PUMPING FOR STRESS PERIOD    31 TIME STEP     1
   LAY   ROW   COL         APPL.Q          ACT.Q        GW-HEAD       CELL-BOT
     1     3    50  -0.799690E+00  -0.398102E+00   0.558373E-03   0.000000E+00
     1     5    55  -0.799690E+00  -0.306034E+00   0.467465E-03   0.000000E+00
 
 
 SOLVING FOR HEAD 
                                                   Max.-Head-Change                         Max.-Flux-Residual
  Residual-Control   Outer-Iter.   Inner-Iter.     Column Row Layer    Maximum-Head-Change  Column Row Layer    Maximum-Flux-Residual          L2-NORM 
          0                 1           2             1    1     1      -0.5804993051E-02       1    1    1        -0.1098206743E-02      0.1918000953E-01
          0                 2           2             1    1     1       0.5638700370E-03       1    1    1         0.1098205359E-03      0.1863780011E-02
          0                 3           1             1    1     1      -0.4953541463E-04       1    1    1        -0.9883864450E-05      0.1707044250E-03
          0                 4           1             1    1     1       0.3889114970E-05       1    1    1         0.7916975484E-06      0.1399185600E-04
          0                 5           1             1    1     1      -0.2689044958E-06       1    7    1        -0.5565558281E-07      0.1001095653E-05

    ------------------------------------------------
       NWT REQUIRED            5 OUTER ITERATIONS 
       AND A TOTAL OF          7 INNER ITERATIONS.
    ------------------------------------------------

 NO OUTPUT CONTROL FOR STRESS PERIOD   31   TIME STEP    2
 
 WELLS WITH REDUCED PUMPING FOR STRESS PERIOD    31 TIME STEP     2
   LAY   ROW   COL         APPL.Q          ACT.Q        GW-HEAD       CELL-BOT
     1     3    50  -0.800132E+00  -0.398047E+00   0.558116E-03   0.000000E+00
     1     5    55  -0.800132E+00  -0.306021E+00   0.467293E-03   0.000000E+00
 
 
 SOLVING FOR HEAD 
                                                   Max.-Head-Change                         Max.-Flux-Residual
  Residual-Control   Outer-Iter.   Inner-Iter.     Column Row Layer    Maximum-Head-Change  Column Row Layer    Maximum-Flux-Residual          L2-NORM 
          0                 1           2             1    1     1      -0.6383522529E-02       1    1    1        -0.1098096738E-02      0.1917346309E-01
          0                 2           2             1    1     1       0.6187062298E-03       1    1    1         0.1098095050E-03      0.1863032377E-02
          0                 3           1             1    1     1      -0.5424221813E-04       1    1    1        -0.9882874924E-05      0.1708235280E-03
          0                 4           1             1    1     1       0.4251034217E-05       1    1    1         0.7916182589E-06      0.1403402810E-04
          0                 5           1             1    1     1      -0.2934923152E-06       1    7    1        -0.5564999839E-07      0.1006593266E-05

    ------------------------------------------------
       NWT REQUIRED            5 OUTER ITERATIONS 
       AND A TOTAL OF          7 INNER ITERATIONS.
    ------------------------------------------------

 NO OUTPUT CONTROL FOR STRESS PERIOD   31   TIME STEP    3
 
 WELLS WITH REDUCED PUMPING FOR STRESS PERIOD    31 TIME STEP     3
   LAY   ROW   COL         APPL.Q          ACT.Q        GW-HEAD       CELL-BOT
     1     3    50  -0.799897E+00  -0.398068E+00   0.558245E-03   0.000000E+00
     1     5    55  -0.799897E+00  -0.306034E+00   0.467390E-03   0.000000E+00
 
 
 SOLVING FOR HEAD 
                                                   Max.-Head-Change                         Max.-Flux-Residual
  Residual-Control   Outer-Iter.   Inner-Iter.     Column Row Layer    Maximum-Head-Change  Column Row Layer    Maximum-Flux-Residual          L2-NORM 
          0                 1           2             1    1     1      -0.7019567485E-02       1    1    1        -0.1097975695E-02      0.1916539722E-01
          0                 2           2             1    1     1       0.6787873785E-03       1    1    1         0.1097973648E-03      0.1862535486E-02
          0                 3           1             1    1     1      -0.5937956762E-04       1    1    1        -0.9881786116E-05      0.1709754148E-03
          0                 4           1             1    1     1       0.4644474964E-05       1    1    1         0.7915309794E-06      0.1408010127E-04
          0                 5           1             1    1     1      -0.3201158762E-06       1    4    1         0.5598483455E-07      0.1012542946E-05

    ------------------------------------------------
       NWT REQUIRED            5 OUTER ITERATIONS 
       AND A TOTAL OF          7 INNER ITERATIONS.
    ------------------------------------------------

 NO OUTPUT CONTROL FOR STRESS PERIOD   31   TIME STEP    4
 
 WELLS WITH REDUCED PUMPING FOR STRESS PERIOD    31 TIME STEP     4
   LAY   ROW   COL         APPL.Q          ACT.Q        GW-HEAD       CELL-BOT
     1     3    50  -0.800110E+00  -0.398070E+00   0.558147E-03   0.000000E+00
     1     5    55  -0.800110E+00  -0.306029E+00   0.467308E-03   0.000000E+00
 
 
 SOLVING FOR HEAD 
                                                   Max.-Head-Change                         Max.-Flux-Residual
  Residual-Control   Outer-Iter.   Inner-Iter.     Column Row Layer    Maximum-Head-Change  Column Row Layer    Maximum-Flux-Residual          L2-NORM 
          0                 1           2             1    1     1      -0.7718831158E-02       1    1    1        -0.1097842506E-02      0.1915781531E-01
          0                 2           2             1    1     1       0.7446149553E-03       1    1    1         0.1097840036E-03      0.1861925729E-02
          0                 3           1             1    1     1      -0.6498639711E-04       1    1    1        -0.9880588088E-05      0.1711141998E-03
          0                 4           1             1    1     1       0.5072060805E-05       1    1    1         0.7914349567E-06      0.1412633284E-04
          0                 5           1             1    1     1      -0.3489259741E-06       1    4    1         0.5815513049E-07      0.1018704800E-05

    ------------------------------------------------
       NWT REQUIRED            5 OUTER ITERATIONS 
       AND A TOTAL OF          7 INNER ITERATIONS.
    ------------------------------------------------

 NO OUTPUT CONTROL FOR STRESS PERIOD   31   TIME STEP    5
 
 WELLS WITH REDUCED PUMPING FOR STRESS PERIOD    31 TIME STEP     5
   LAY   ROW   COL         APPL.Q          ACT.Q        GW-HEAD       CELL-BOT
     1     3    50  -0.800055E+00  -0.398057E+00   0.558161E-03   0.000000E+00
     1     5    55  -0.800055E+00  -0.306003E+00   0.467304E-03   0.000000E+00
 
 
 SOLVING FOR HEAD 
                                                   Max.-Head-Change                         Max.-Flux-Residual
  Residual-Control   Outer-Iter.   Inner-Iter.     Column Row Layer    Maximum-Head-Change  Column Row Layer    Maximum-Flux-Residual          L2-NORM 
          0                 1           2             1    1     1      -0.8487581976E-02       1    1    1        -0.1097695920E-02      0.1915144382E-01
          0                 2           2             1    1     1       0.8167406054E-03       1    1    1         0.1097692956E-03      0.1861301134E-02
          0                 3           1             1    1     1      -0.7110553134E-04       1    1    1        -0.9879269601E-05      0.1712421579E-03
          0                 4           1             1    1     1       0.5536668384E-05       1    1    1         0.7913292919E-06      0.1417205762E-04
          0                 5           1             1    1     1      -0.3800867577E-06       1    4    1         0.6028828992E-07      0.1025002567E-05

    ------------------------------------------------
       NWT REQUIRED            5 OUTER ITERATIONS 
       AND A TOTAL OF          7 INNER ITERATIONS.
    ------------------------------------------------

 NO OUTPUT CONTROL FOR STRESS PERIOD   31   TIME STEP    6
 
 WELLS WITH REDUCED PUMPING FOR STRESS PERIOD    31 TIME STEP     6
   LAY   ROW   COL         APPL.Q          ACT.Q        GW-HEAD       CELL-BOT
     1     3    50  -0.799954E+00  -0.398032E+00   0.558185E-03   0.000000E+00
     1     5    55  -0.799954E+00  -0.305971E+00   0.467310E-03   0.000000E+00
 
 
 SOLVING FOR HEAD 
                                                   Max.-Head-Change                         Max.-Flux-Residual
  Residual-Control   Outer-Iter.   Inner-Iter.     Column Row Layer    Maximum-Head-Change  Column Row Layer    Maximum-Flux-Residual          L2-NORM 
          0                 1           2             1    1     1      -0.9332706464E-02       1    1    1        -0.1097534554E-02      0.1914416446E-01
          0                 2           2             1    1     1       0.8957711629E-03       1    1    1         0.1097531015E-03      0.1860666638E-02
          0                 3           1             1    1     1      -0.7778411150E-04       1    1    1        -0.9877818201E-05      0.1713710525E-03
          0                 4           1             1    1     1       0.6041456180E-05       1    1    1         0.7912129369E-06      0.1421849598E-04
          0                 5           1             1    1     1      -0.4137773424E-06       1    4    1         0.6237740635E-07      0.1031500505E-05

    ------------------------------------------------
       NWT REQUIRED            5 OUTER ITERATIONS 
       AND A TOTAL OF          7 INNER ITERATIONS.
    ------------------------------------------------

 NO OUTPUT CONTROL FOR STRESS PERIOD   31   TIME STEP    7
 
 WELLS WITH REDUCED PUMPING FOR STRESS PERIOD    31 TIME STEP     7
   LAY   ROW   COL         APPL.Q          ACT.Q        GW-HEAD       CELL-BOT
     1     3    50  -0.799908E+00  -0.397998E+00   0.558174E-03   0.000000E+00
     1     5    55  -0.799908E+00  -0.305933E+00   0.467290E-03   0.000000E+00
 
 
 SOLVING FOR HEAD 
                                                   Max.-Head-Change                         Max.-Flux-Residual
  Residual-Control   Outer-Iter.   Inner-Iter.     Column Row Layer    Maximum-Head-Change  Column Row Layer    Maximum-Flux-Residual          L2-NORM 
          0                 1           2             1    1     1      -0.1026177264E-01       1    1    1        -0.1097356885E-02      0.1913615442E-01
          0                 2           2             1    1     1       0.9823746493E-03       1    1    1         0.1097352680E-03      0.1859920570E-02
          0                 3           1             1    1     1      -0.8507410556E-04       1    1    1        -0.9876220194E-05      0.1714930564E-03
          0                 4           1             1    1     1       0.6589899692E-05       1    1    1         0.7910848403E-06      0.1426559899E-04
          0                 5           1             1    1     1      -0.4501937844E-06       1    4    1         0.6441592504E-07      0.1038215257E-05

    ------------------------------------------------
       NWT REQUIRED            5 OUTER ITERATIONS 
       AND A TOTAL OF          7 INNER ITERATIONS.
    ------------------------------------------------

 NO OUTPUT CONTROL FOR STRESS PERIOD   31   TIME STEP    8
 
 WELLS WITH REDUCED PUMPING FOR STRESS PERIOD    31 TIME STEP     8
   LAY   ROW   COL         APPL.Q          ACT.Q        GW-HEAD       CELL-BOT
     1     3    50  -0.799929E+00  -0.397955E+00   0.558124E-03   0.000000E+00
     1     5    55  -0.799929E+00  -0.305887E+00   0.467239E-03   0.000000E+00
 
 
 SOLVING FOR HEAD 
                                                   Max.-Head-Change                         Max.-Flux-Residual
  Residual-Control   Outer-Iter.   Inner-Iter.     Column Row Layer    Maximum-Head-Change  Column Row Layer    Maximum-Flux-Residual          L2-NORM 
          0                 1           2             1    1     1      -0.1128309339E-01       1    1    1        -0.1097161235E-02      0.1912835572E-01
          0                 2           2             1    1     1       0.1077286254E-02       1    1    1         0.1097156264E-03      0.1859034109E-02
          0                 3           1             1    1     1      -0.9303281382E-04       1    1    1        -0.9874460492E-05      0.1715827321E-03
          0                 4           1             1    1     1       0.7185823259E-05       1    1    1         0.7909437869E-06      0.1431017721E-04
          0                 5           1             1    1     1      -0.4895507841E-06       1    4    1         0.6639774242E-07      0.1044913049E-05

    ------------------------------------------------
       NWT REQUIRED            5 OUTER ITERATIONS 
       AND A TOTAL OF          7 INNER ITERATIONS.
    ------------------------------------------------

 NO OUTPUT CONTROL FOR STRESS PERIOD   31   TIME STEP    9
 
 WELLS WITH REDUCED PUMPING FOR STRESS PERIOD    31 TIME STEP     9
   LAY   ROW   COL         APPL.Q          ACT.Q        GW-HEAD       CELL-BOT
     1     3    50  -0.799967E+00  -0.397903E+00   0.558058E-03   0.000000E+00
     1     5    55  -0.799967E+00  -0.305835E+00   0.467176E-03   0.000000E+00
 
 
 SOLVING FOR HEAD 
                                                   Max.-Head-Change                         Max.-Flux-Residual
  Residual-Control   Outer-Iter.   Inner-Iter.     Column Row Layer    Maximum-Head-Change  Column Row Layer    Maximum-Flux-Residual          L2-NORM 
          0                 1           2             1    1     1      -0.1240580258E-01       1    1    1        -0.1096945759E-02      0.1912018666E-01
          0                 2           2             1    1     1       0.1181315483E-02       1    1    1         0.1096939906E-03      0.1858210198E-02
          0                 3           1             1    1     1      -0.1017234688E-03       1    1    1        -0.9872522497E-05      0.1716889082E-03
          0                 4           1             1    1     1       0.7833435055E-05       1    1    1         0.7907884303E-06      0.1435629664E-04
          0                 5           1             1    1     1      -0.5320832985E-06       1    4    1         0.6831716348E-07      0.1051790711E-05

    ------------------------------------------------
       NWT REQUIRED            5 OUTER ITERATIONS 
       AND A TOTAL OF          7 INNER ITERATIONS.
    ------------------------------------------------

 NO OUTPUT CONTROL FOR STRESS PERIOD   31   TIME STEP   10
 
 WELLS WITH REDUCED PUMPING FOR STRESS PERIOD    31 TIME STEP    10
   LAY   ROW   COL         APPL.Q          ACT.Q        GW-HEAD       CELL-BOT
     1     3    50  -0.799932E+00  -0.397844E+00   0.558019E-03   0.000000E+00
     1     5    55  -0.799932E+00  -0.305775E+00   0.467131E-03   0.000000E+00
 
 
 SOLVING FOR HEAD 
                                                   Max.-Head-Change                         Max.-Flux-Residual
  Residual-Control   Outer-Iter.   Inner-Iter.     Column Row Layer    Maximum-Head-Change  Column Row Layer    Maximum-Flux-Residual          L2-NORM 
          0                 1           2             1    1     1      -0.1363992891E-01       1    1    1        -0.1096708418E-02      0.1911032851E-01
          0                 2           2             1    1     1       0.1295353063E-02       1    1    1         0.1096701557E-03      0.1857375106E-02
          0                 3           2             1    1     1      -0.1112176603E-03       1    1    1        -0.9870387871E-05      0.1717936107E-03
          0                 4           1             1    1     1       0.8539329224E-05       1    1    1         0.7906172961E-06      0.1440571201E-04
          0                 5           1             1    1     1      -0.5781754821E-06      22    4    1         0.7021072435E-07      0.1058968660E-05

    ------------------------------------------------
       NWT REQUIRED            5 OUTER ITERATIONS 
       AND A TOTAL OF          8 INNER ITERATIONS.
    ------------------------------------------------

 NO OUTPUT CONTROL FOR STRESS PERIOD   31   TIME STEP   11
 
 WELLS WITH REDUCED PUMPING FOR STRESS PERIOD    31 TIME STEP    11
   LAY   ROW   COL         APPL.Q          ACT.Q        GW-HEAD       CELL-BOT
     1     3    50  -0.800026E+00  -0.397775E+00   0.557912E-03   0.000000E+00
     1     5    55  -0.800026E+00  -0.305707E+00   0.467033E-03   0.000000E+00
 
 
 SOLVING FOR HEAD 
                                                   Max.-Head-Change                         Max.-Flux-Residual
  Residual-Control   Outer-Iter.   Inner-Iter.     Column Row Layer    Maximum-Head-Change  Column Row Layer    Maximum-Flux-Residual          L2-NORM 
          0                 1           2             1    1     1      -0.1499648608E-01       1    1    1        -0.1096446964E-02      0.1909888687E-01
          0                 2           2             1    1     1       0.1420379307E-02       1    1    1         0.1096438954E-03      0.1856300762E-02
          0                 3           2             1    1     1      -0.1215898286E-03       1    1    1        -0.9868036411E-05      0.1718702022E-03
          0                 4           1             1    1     1       0.9305918340E-05       1    1    1         0.7904287855E-06      0.1445017978E-04
          0                 5           1             1    1     1      -0.6279322963E-06      22    4    1         0.7228288013E-07      0.1065832098E-05

    ------------------------------------------------
       NWT REQUIRED            5 OUTER ITERATIONS 
       AND A TOTAL OF          8 INNER ITERATIONS.
    ------------------------------------------------

 NO OUTPUT CONTROL FOR STRESS PERIOD   31   TIME STEP   12
 
 WELLS WITH REDUCED PUMPING FOR STRESS PERIOD    31 TIME STEP    12
   LAY   ROW   COL         APPL.Q          ACT.Q        GW-HEAD       CELL-BOT
     1     3    50  -0.800041E+00  -0.397698E+00   0.557833E-03   0.000000E+00
     1     5    55  -0.800041E+00  -0.305630E+00   0.466955E-03   0.000000E+00
 
 
 SOLVING FOR HEAD 
                                                   Max.-Head-Change                         Max.-Flux-Residual
  Residual-Control   Outer-Iter.   Inner-Iter.     Column Row Layer    Maximum-Head-Change  Column Row Layer    Maximum-Flux-Residual          L2-NORM 
          0                 1           2             1    1     1      -0.1648756583E-01       1    1    1        -0.1096158914E-02      0.1908635258E-01
          0                 2           2             1    1     1       0.1557472715E-02       1    1    1         0.1096149598E-03      0.1855103796E-02
          0                 3           2             1    1     1      -0.1329261540E-03       1    1    1        -0.9865445755E-05      0.1719298427E-03
          0                 4           1             1    1     1       0.1014018975E-04       1    1    1         0.7902210868E-06      0.1449296432E-04
          0                 5           1             1    1     1      -0.6817462000E-06      22    4    1         0.7428149473E-07      0.1072574051E-05

    ------------------------------------------------
       NWT REQUIRED            5 OUTER ITERATIONS 
       AND A TOTAL OF          8 INNER ITERATIONS.
    ------------------------------------------------

 NO OUTPUT CONTROL FOR STRESS PERIOD   31   TIME STEP   13
 
 WELLS WITH REDUCED PUMPING FOR STRESS PERIOD    31 TIME STEP    13
   LAY   ROW   COL         APPL.Q          ACT.Q        GW-HEAD       CELL-BOT
     1     3    50  -0.800041E+00  -0.397612E+00   0.557752E-03   0.000000E+00
     1     5    55  -0.800041E+00  -0.305545E+00   0.466874E-03   0.000000E+00
 
 
 SOLVING FOR HEAD 
                                                   Max.-Head-Change                         Max.-Flux-Residual
  Residual-Control   Outer-Iter.   Inner-Iter.     Column Row Layer    Maximum-Head-Change  Column Row Layer    Maximum-Flux-Residual          L2-NORM 
          0                 1           2             1    1     1      -0.1812643973E-01       1    1    1        -0.1095841522E-02      0.1907259601E-01
          0                 2           2             1    1     1       0.1707819296E-02       1    1    1         0.1095830728E-03      0.1853783055E-02
          0                 3           2             1    1     1      -0.1453204600E-03       1    1    1        -0.9862591199E-05      0.1719722910E-03
          0                 4           1             1    1     1       0.1104856854E-04      22    4    1        -0.7989993662E-06      0.1453386064E-04
          0                 5           1             1    1     1      -0.7399589807E-06      22    4    1         0.7620188214E-07      0.1079133960E-05

    ------------------------------------------------
       NWT REQUIRED            5 OUTER ITERATIONS 
       AND A TOTAL OF          8 INNER ITERATIONS.
    ------------------------------------------------

 NO OUTPUT CONTROL FOR STRESS PERIOD   31   TIME STEP   14
 
 WELLS WITH REDUCED PUMPING FOR STRESS PERIOD    31 TIME STEP    14
   LAY   ROW   COL         APPL.Q          ACT.Q        GW-HEAD       CELL-BOT
     1     3    50  -0.800017E+00  -0.397514E+00   0.557672E-03   0.000000E+00
     1     5    55  -0.800017E+00  -0.305449E+00   0.466792E-03   0.000000E+00
 
 
 SOLVING FOR HEAD 
                                                   Max.-Head-Change                         Max.-Flux-Residual
  Residual-Control   Outer-Iter.   Inner-Iter.     Column Row Layer    Maximum-Head-Change  Column Row Layer    Maximum-Flux-Residual          L2-NORM 
          0                 1           2             1    1     1      -0.1992767025E-01       1    1    1        -0.1095491755E-02      0.1905778637E-01
          0                 2           2             1    1     1       0.1872722711E-02       1    1    1         0.1095479291E-03      0.1852322070E-02
          0                 3           2             1    1     1      -0.1588761532E-03       1    1    1        -0.9859445456E-05      0.1719796065E-03
          0                 4           1             1    1     1       0.1203815037E-04      31    4    1        -0.8032074312E-06      0.1456994564E-04
          0                 5           1             1    1     1      -0.8029364501E-06       2    4    1         0.7688018044E-07      0.1085195802E-05

    ------------------------------------------------
       NWT REQUIRED            5 OUTER ITERATIONS 
       AND A TOTAL OF          8 INNER ITERATIONS.
    ------------------------------------------------

 NO OUTPUT CONTROL FOR STRESS PERIOD   31   TIME STEP   15
 
 WELLS WITH REDUCED PUMPING FOR STRESS PERIOD    31 TIME STEP    15
   LAY   ROW   COL         APPL.Q          ACT.Q        GW-HEAD       CELL-BOT
     1     3    50  -0.800017E+00  -0.397406E+00   0.557571E-03   0.000000E+00
     1     5    55  -0.800017E+00  -0.305343E+00   0.466691E-03   0.000000E+00
 
 
 SOLVING FOR HEAD 
                                                   Max.-Head-Change                         Max.-Flux-Residual
  Residual-Control   Outer-Iter.   Inner-Iter.     Column Row Layer    Maximum-Head-Change  Column Row Layer    Maximum-Flux-Residual          L2-NORM 
          0                 1           2             1    1     1      -0.2190723208E-01       1    1    1        -0.1095106258E-02      0.1904173587E-01
          0                 2           2             1    1     1       0.2053615279E-02       1    1    1         0.1095091911E-03      0.1850749826E-02
          0                 3           2             1    1     1      -0.1737071237E-03       1    1    1        -0.9855978341E-05      0.1719741463E-03
          0                 4           1             1    1     1       0.1311675993E-04      31    4    1        -0.8190815546E-06      0.1460403770E-04
          0                 5           1             1    1     1      -0.8710635919E-06      23    4    1         0.7870300678E-07      0.1090929312E-05

    ------------------------------------------------
       NWT REQUIRED            5 OUTER ITERATIONS 
       AND A TOTAL OF          8 INNER ITERATIONS.
    ------------------------------------------------

 NO OUTPUT CONTROL FOR STRESS PERIOD   31   TIME STEP   16
 
 WELLS WITH REDUCED PUMPING FOR STRESS PERIOD    31 TIME STEP    16
   LAY   ROW   COL         APPL.Q          ACT.Q        GW-HEAD       CELL-BOT
     1     3    50  -0.800017E+00  -0.397284E+00   0.557457E-03   0.000000E+00
     1     5    55  -0.800017E+00  -0.305224E+00   0.466578E-03   0.000000E+00
 
 
 SOLVING FOR HEAD 
                                                   Max.-Head-Change                         Max.-Flux-Residual
  Residual-Control   Outer-Iter.   Inner-Iter.     Column Row Layer    Maximum-Head-Change  Column Row Layer    Maximum-Flux-Residual          L2-NORM 
          0                 1           2             1    1     1      -0.2408264455E-01       1    1    1        -0.1094681319E-02      0.1902563257E-01
          0                 2           2             1    1     1       0.2252069918E-02       1    1    1         0.1094664855E-03      0.1848956432E-02
          0                 3           2             1    1     1      -0.1899387126E-03       1    1    1        -0.9852156438E-05      0.1719187488E-03
          0                 4           1             1    1     1       0.1429300915E-04      31    4    1        -0.8340678956E-06      0.1463299074E-04
          0                 5           1             1    1     1      -0.9447361358E-06      23    4    1         0.8032415266E-07      0.1096143678E-05

    ------------------------------------------------
       NWT REQUIRED            5 OUTER ITERATIONS 
       AND A TOTAL OF          8 INNER ITERATIONS.
    ------------------------------------------------

 NO OUTPUT CONTROL FOR STRESS PERIOD   31   TIME STEP   17
 
 WELLS WITH REDUCED PUMPING FOR STRESS PERIOD    31 TIME STEP    17
   LAY   ROW   COL         APPL.Q          ACT.Q        GW-HEAD       CELL-BOT
     1     3    50  -0.800035E+00  -0.397149E+00   0.557323E-03   0.000000E+00
     1     5    55  -0.800035E+00  -0.305092E+00   0.466447E-03   0.000000E+00
 
 
 SOLVING FOR HEAD 
                                                   Max.-Head-Change                         Max.-Flux-Residual
  Residual-Control   Outer-Iter.   Inner-Iter.     Column Row Layer    Maximum-Head-Change  Column Row Layer    Maximum-Flux-Residual          L2-NORM 
          0                 1           2             1    1     1      -0.2647311013E-01       1    1    1        -0.1094212829E-02      0.1900700585E-01
          0                 2           2             1    1     1       0.2469812578E-02       1    1    1         0.1094193990E-03      0.1847251394E-02
          0                 3           2             1    1     1      -0.2077087115E-03       1    1    1        -0.9847942778E-05      0.1718997965E-03
          0                 4           1             1    1     1       0.1557635236E-04      31    4    1        -0.8481550502E-06      0.1466500969E-04
          0                 5           1             1    1     1      -0.1024347581E-05      23    4    1         0.8184379041E-07      0.1101237060E-05
          0                 6           1             1    1     1       0.5828887335E-07       2    4    1        -0.6221057447E-08      0.7087544654E-07

    ------------------------------------------------
       NWT REQUIRED            6 OUTER ITERATIONS 
       AND A TOTAL OF          9 INNER ITERATIONS.
    ------------------------------------------------

 NO OUTPUT CONTROL FOR STRESS PERIOD   31   TIME STEP   18
 
 WELLS WITH REDUCED PUMPING FOR STRESS PERIOD    31 TIME STEP    18
   LAY   ROW   COL         APPL.Q          ACT.Q        GW-HEAD       CELL-BOT
     1     3    50  -0.800026E+00  -0.396998E+00   0.557185E-03   0.000000E+00
     1     5    55  -0.800026E+00  -0.304945E+00   0.466310E-03   0.000000E+00
 
 
 SOLVING FOR HEAD 
                                                   Max.-Head-Change                         Max.-Flux-Residual
  Residual-Control   Outer-Iter.   Inner-Iter.     Column Row Layer    Maximum-Head-Change  Column Row Layer    Maximum-Flux-Residual          L2-NORM 
          0                 1           2             1    1     1      -0.2909967872E-01       1    7    1        -0.1093697146E-02      0.1898636813E-01
          0                 2           2             1    1     1       0.2708737103E-02       1    7    1         0.1093675643E-03      0.1845235998E-02
          0                 3           2             1    1     1      -0.2271685675E-03       1    7    1        -0.9843304555E-05      0.1718269477E-03
          0                 4           1             1    1     1       0.1697715113E-04      31    4    1        -0.8608985400E-06      0.1468966967E-04
          0                 5           1             1    1     1      -0.1110269678E-05      23    4    1         0.8325234191E-07      0.1105326429E-05
          0                 6           1             1    1     1       0.6279760724E-07       2    4    1        -0.6337828040E-08      0.7132035365E-07

    ------------------------------------------------
       NWT REQUIRED            6 OUTER ITERATIONS 
       AND A TOTAL OF          9 INNER ITERATIONS.
    ------------------------------------------------

 NO OUTPUT CONTROL FOR STRESS PERIOD   31   TIME STEP   19
 
 WELLS WITH REDUCED PUMPING FOR STRESS PERIOD    31 TIME STEP    19
   LAY   ROW   COL         APPL.Q          ACT.Q        GW-HEAD       CELL-BOT
     1     3    50  -0.799983E+00  -0.396829E+00   0.557049E-03   0.000000E+00
     1     5    55  -0.799983E+00  -0.304782E+00   0.466171E-03   0.000000E+00
 
 
 SOLVING FOR HEAD 
                                                   Max.-Head-Change                         Max.-Flux-Residual
  Residual-Control   Outer-Iter.   Inner-Iter.     Column Row Layer    Maximum-Head-Change  Column Row Layer    Maximum-Flux-Residual          L2-NORM 
          0                 1           2             1    1     1      -0.3198538310E-01       1    7    1        -0.1093127787E-02      0.1897994441E-01
          0                 2           2             1    1     1       0.2970916323E-02       1    7    1         0.1093103304E-03      0.1843594147E-02
          0                 3           2             1    1     1      -0.2484841738E-03       1    7    1        -0.9838183426E-05      0.1717119307E-03
          0                 4           1             1    1     1       0.1850669101E-04      31    4    1        -0.8726262894E-06      0.1470717500E-04
          0                 5           1             1    1     1      -0.1202820023E-05      24    4    1         0.8374160565E-07      0.1108324530E-05
          0                 6           1             1    1     1       0.6757549319E-07       2    4    1        -0.6445770140E-08      0.7166574852E-07

    ------------------------------------------------
       NWT REQUIRED            6 OUTER ITERATIONS 
       AND A TOTAL OF          9 INNER ITERATIONS.
    ------------------------------------------------

 NO OUTPUT CONTROL FOR STRESS PERIOD   31   TIME STEP   20
 
 WELLS WITH REDUCED PUMPING FOR STRESS PERIOD    31 TIME STEP    20
   LAY   ROW   COL         APPL.Q          ACT.Q        GW-HEAD       CELL-BOT
     1     3    50  -0.799976E+00  -0.396641E+00   0.556876E-03   0.000000E+00
     1     5    55  -0.799976E+00  -0.304601E+00   0.466002E-03   0.000000E+00
 
 
 SOLVING FOR HEAD 
                                                   Max.-Head-Change                         Max.-Flux-Residual
  Residual-Control   Outer-Iter.   Inner-Iter.     Column Row Layer    Maximum-Head-Change  Column Row Layer    Maximum-Flux-Residual          L2-NORM 
          0                 1           2             3    1     1      -0.3528633193E-01       1    7    1        -0.1092499474E-02      0.1901161036E-01
          0                 2           2             4    1     1       0.3273738936E-02       1    7    1         0.1092486860E-03      0.1842429694E-02
          0                 3           2             4    1     1      -0.2733220844E-03       1    7    1        -0.9832654324E-05      0.1713554556E-03
          0                 4           1             4    1     1       0.2029957696E-04      31    4    1        -0.8835047414E-06      0.1468702428E-04
          0                 5           1             4    1     1      -0.1309964608E-05      24    4    1         0.8525056572E-07      0.1107305847E-05
          0                 6           1             1    1     1       0.7298290909E-07      24    4    1        -0.6444007994E-08      0.7170991849E-07

    ------------------------------------------------
       NWT REQUIRED            6 OUTER ITERATIONS 
       AND A TOTAL OF          9 INNER ITERATIONS.
    ------------------------------------------------

 NO OUTPUT CONTROL FOR STRESS PERIOD   31   TIME STEP   21
 
 WELLS WITH REDUCED PUMPING FOR STRESS PERIOD    31 TIME STEP    21
   LAY   ROW   COL         APPL.Q          ACT.Q        GW-HEAD       CELL-BOT
     1     3    50  -0.800000E+00  -0.396432E+00   0.556670E-03   0.000000E+00
     1     5    55  -0.800000E+00  -0.304400E+00   0.465802E-03   0.000000E+00
 
 
 SOLVING FOR HEAD 
                                                   Max.-Head-Change                         Max.-Flux-Residual
  Residual-Control   Outer-Iter.   Inner-Iter.     Column Row Layer    Maximum-Head-Change  Column Row Layer    Maximum-Flux-Residual          L2-NORM 
          0                 1           2             4    4     1      -0.4069785121E-01       4    3    1        -0.1099071279E-02      0.1923983724E-01
          0                 2           2             4    1     1       0.3685377919E-02       4    3    1         0.1099270266E-03      0.1849606438E-02
          0                 3           2             4    1     1      -0.3068034361E-03       4    3    1        -0.9894306263E-05      0.1709184653E-03
          0                 4           1             4    1     1       0.2269427678E-04      31    4    1        -0.8935020137E-06      0.1461915013E-04
          0                 5           1             4    1     1      -0.1451374185E-05      24    4    1         0.8490459180E-07      0.1100945322E-05
          0                 6           1             1    1     1       0.7998322249E-07      24    4    1        -0.6469509373E-08      0.7137769584E-07

    ------------------------------------------------
       NWT REQUIRED            6 OUTER ITERATIONS 
       AND A TOTAL OF          9 INNER ITERATIONS.
    ------------------------------------------------

 NO OUTPUT CONTROL FOR STRESS PERIOD   31   TIME STEP   22
 
 WELLS WITH REDUCED PUMPING FOR STRESS PERIOD    31 TIME STEP    22
   LAY   ROW   COL         APPL.Q          ACT.Q        GW-HEAD       CELL-BOT
     1     3    50  -0.799995E+00  -0.396199E+00   0.556455E-03   0.000000E+00
     1     5    55  -0.799995E+00  -0.304176E+00   0.465591E-03   0.000000E+00
 
 
 SOLVING FOR HEAD 
                                                   Max.-Head-Change                         Max.-Flux-Residual
  Residual-Control   Outer-Iter.   Inner-Iter.     Column Row Layer    Maximum-Head-Change  Column Row Layer    Maximum-Flux-Residual          L2-NORM 
          0                 1           2             1    4     1      -0.4452088799E-01       4    3    1        -0.1140754915E-02      0.1945123093E-01
          0                 2           2             1    1     1       0.4101669080E-02       4    3    1         0.1140797648E-03      0.1874118155E-02
          0                 3           2             1    1     1      -0.3411178466E-03       4    3    1        -0.1026865242E-04      0.1734485099E-03
          0                 4           1             1    1     1       0.2518640513E-04      31    4    1        -0.8978846253E-06      0.1486370870E-04
          0                 5           1             1    1     1      -0.1598692339E-05       7    4    1         0.8523215200E-07      0.1118432050E-05
          0                 6           1             1    1     1       0.8742894140E-07       7    4    1        -0.6671296404E-08      0.7249962977E-07

    ------------------------------------------------
       NWT REQUIRED            6 OUTER ITERATIONS 
       AND A TOTAL OF          9 INNER ITERATIONS.
    ------------------------------------------------

 NO OUTPUT CONTROL FOR STRESS PERIOD   31   TIME STEP   23
 
 WELLS WITH REDUCED PUMPING FOR STRESS PERIOD    31 TIME STEP    23
   LAY   ROW   COL         APPL.Q          ACT.Q        GW-HEAD       CELL-BOT
     1     3    50  -0.800014E+00  -0.395939E+00   0.556203E-03   0.000000E+00
     1     5    55  -0.800014E+00  -0.303928E+00   0.465348E-03   0.000000E+00
 
 
 SOLVING FOR HEAD 
                                                   Max.-Head-Change                         Max.-Flux-Residual
  Residual-Control   Outer-Iter.   Inner-Iter.     Column Row Layer    Maximum-Head-Change  Column Row Layer    Maximum-Flux-Residual          L2-NORM 
          0                 1           2             1    1     1      -0.4885130187E-01       1    5    1        -0.1145161893E-02      0.1959052783E-01
          0                 2           2             1    1     1       0.4515545636E-02       1    3    1         0.1145084212E-03      0.1891948702E-02
          0                 3           2             1    1     1      -0.3749743888E-03       1    5    1        -0.1030634009E-04      0.1754004975E-03
          0                 4           1             1    1     1       0.2761772812E-04      35    4    1        -0.8617088962E-06      0.1506144313E-04
          0                 5           1             1    1     1      -0.1735216080E-05       7    4    1         0.8805266205E-07      0.1131311463E-05
          0                 6           1             1    1     1       0.9386532141E-07       7    4    1        -0.6843105638E-08      0.7325572132E-07

    ------------------------------------------------
       NWT REQUIRED            6 OUTER ITERATIONS 
       AND A TOTAL OF          9 INNER ITERATIONS.
    ------------------------------------------------

 NO OUTPUT CONTROL FOR STRESS PERIOD   31   TIME STEP   24
 
 WELLS WITH REDUCED PUMPING FOR STRESS PERIOD    31 TIME STEP    24
   LAY   ROW   COL         APPL.Q          ACT.Q        GW-HEAD       CELL-BOT
     1     3    50  -0.799996E+00  -0.395649E+00   0.555941E-03   0.000000E+00
     1     5    55  -0.799996E+00  -0.303652E+00   0.465093E-03   0.000000E+00
 
 
 SOLVING FOR HEAD 
                                                   Max.-Head-Change                         Max.-Flux-Residual
  Residual-Control   Outer-Iter.   Inner-Iter.     Column Row Layer    Maximum-Head-Change  Column Row Layer    Maximum-Flux-Residual          L2-NORM 
          0                 1           3             1    1     1      -0.5370019766E-01       1    5    1        -0.1141312329E-02      0.1968231672E-01
          0                 2           2             1    1     1       0.4956405727E-02       1    5    1         0.1141241521E-03      0.1902430986E-02
          0                 3           2             1    1     1      -0.4107627944E-03       1    5    1        -0.1027179862E-04      0.1765056540E-03
          0                 4           1             1    1     1       0.3015965422E-04      30    4    1        -0.9047991423E-06      0.1517900615E-04
          0                 5           1             1    1     1      -0.1871427619E-05      30    4    1         0.9011586855E-07      0.1136916358E-05
          0                 6           1             1    1     1       0.9991001879E-07       2    4    1        -0.6903384531E-08      0.7349331883E-07

    ------------------------------------------------
       NWT REQUIRED            6 OUTER ITERATIONS 
       AND A TOTAL OF         10 INNER ITERATIONS.
    ------------------------------------------------

 NO OUTPUT CONTROL FOR STRESS PERIOD   31   TIME STEP   25
 
 WELLS WITH REDUCED PUMPING FOR STRESS PERIOD    31 TIME STEP    25
   LAY   ROW   COL         APPL.Q          ACT.Q        GW-HEAD       CELL-BOT
     1     3    50  -0.800009E+00  -0.395326E+00   0.555633E-03   0.000000E+00
     1     5    55  -0.800009E+00  -0.303345E+00   0.464797E-03   0.000000E+00
 
 
 SOLVING FOR HEAD 
                                                   Max.-Head-Change                         Max.-Flux-Residual
  Residual-Control   Outer-Iter.   Inner-Iter.     Column Row Layer    Maximum-Head-Change  Column Row Layer    Maximum-Flux-Residual          L2-NORM 
          0                 1           3             1    1     1      -0.5900136969E-01       1    5    1        -0.1139606628E-02      0.1974492954E-01
          0                 2           2             1    1     1       0.5437638391E-02       1    5    1         0.1139532391E-03      0.1910024384E-02
          0                 3           2             1    1     1      -0.4497554122E-03       1    5    1        -0.1025647424E-04      0.1773504237E-03
          0                 4           1             1    1     1       0.3291365731E-04      30    4    1        -0.9620062684E-06      0.1527393351E-04
          0                 5           1             1    1     1      -0.2009282305E-05      30    4    1         0.9439674997E-07      0.1139244040E-05
          0                 6           1             1    1     1       0.1054883263E-06      30    4    1        -0.7094641319E-08      0.7345001880E-07

    ------------------------------------------------
       NWT REQUIRED            6 OUTER ITERATIONS 
       AND A TOTAL OF         10 INNER ITERATIONS.
    ------------------------------------------------

 NO OUTPUT CONTROL FOR STRESS PERIOD   31   TIME STEP   26
 
 WELLS WITH REDUCED PUMPING FOR STRESS PERIOD    31 TIME STEP    26
   LAY   ROW   COL         APPL.Q          ACT.Q        GW-HEAD       CELL-BOT
     1     3    50  -0.800005E+00  -0.394965E+00   0.555299E-03   0.000000E+00
     1     5    55  -0.800005E+00  -0.303005E+00   0.464475E-03   0.000000E+00
 
 
 SOLVING FOR HEAD 
                                                   Max.-Head-Change                         Max.-Flux-Residual
  Residual-Control   Outer-Iter.   Inner-Iter.     Column Row Layer    Maximum-Head-Change  Column Row Layer    Maximum-Flux-Residual          L2-NORM 
          0                 1           3             1    1     1      -0.6481669237E-01       1    7    1        -0.1138302239E-02      0.1977931188E-01
          0                 2           2             1    1     1       0.5965257257E-02       1    7    1         0.1138241271E-03      0.1915008110E-02
          0                 3           2             1    1     1      -0.4924623002E-03       1    7    1        -0.1024478012E-04      0.1779654373E-03
          0                 4           1             1    1     1       0.3591589564E-04      30    4    1        -0.9704941668E-06      0.1534819462E-04
          0                 5           1             1    1     1      -0.2148878438E-05      30    4    1         0.9542828927E-07      0.1137908779E-05
          0                 6           1             1    1     1       0.1105525550E-06      30    4    1        -0.7174858041E-08      0.7308959900E-07

    ------------------------------------------------
       NWT REQUIRED            6 OUTER ITERATIONS 
       AND A TOTAL OF         10 INNER ITERATIONS.
    ------------------------------------------------

 NO OUTPUT CONTROL FOR STRESS PERIOD   31   TIME STEP   27
 
 WELLS WITH REDUCED PUMPING FOR STRESS PERIOD    31 TIME STEP    27
   LAY   ROW   COL         APPL.Q          ACT.Q        GW-HEAD       CELL-BOT
     1     3    50  -0.800001E+00  -0.394564E+00   0.554926E-03   0.000000E+00
     1     5    55  -0.800001E+00  -0.302627E+00   0.464117E-03   0.000000E+00
 
 
 SOLVING FOR HEAD 
                                                   Max.-Head-Change                         Max.-Flux-Residual
  Residual-Control   Outer-Iter.   Inner-Iter.     Column Row Layer    Maximum-Head-Change  Column Row Layer    Maximum-Flux-Residual          L2-NORM 
          0                 1           3             1    1     1      -0.7119762681E-01       1    7    1        -0.1136946824E-02      0.1978767884E-01
          0                 2           2             1    1     1       0.6543960894E-02       1    7    1         0.1136878383E-03      0.1917185749E-02
          0                 3           2             1    1     1      -0.5392593019E-03       1    7    1        -0.1023258475E-04      0.1782717699E-03
          0                 4           1             1    1     1       0.3918814612E-04      30    4    1        -0.9757543609E-06      0.1539114268E-04
          0                 5           1             1    1     1      -0.2286710335E-05      30    4    1         0.9620285901E-07      0.1131897408E-05
          0                 6           1             1    1     1       0.1147794865E-06      30    4    1        -0.7225875009E-08      0.7236609387E-07

    ------------------------------------------------
       NWT REQUIRED            6 OUTER ITERATIONS 
       AND A TOTAL OF         10 INNER ITERATIONS.
    ------------------------------------------------

 NO OUTPUT CONTROL FOR STRESS PERIOD   31   TIME STEP   28
 
 WELLS WITH REDUCED PUMPING FOR STRESS PERIOD    31 TIME STEP    28
   LAY   ROW   COL         APPL.Q          ACT.Q        GW-HEAD       CELL-BOT
     1     3    50  -0.799986E+00  -0.394115E+00   0.554513E-03   0.000000E+00
     1     5    55  -0.799986E+00  -0.302206E+00   0.463723E-03   0.000000E+00
 
 
 SOLVING FOR HEAD 
                                                   Max.-Head-Change                         Max.-Flux-Residual
  Residual-Control   Outer-Iter.   Inner-Iter.     Column Row Layer    Maximum-Head-Change  Column Row Layer    Maximum-Flux-Residual          L2-NORM 
          0                 1           3             1    1     1      -0.7819757324E-01       1    7    1        -0.1135463565E-02      0.1977214095E-01
          0                 2           2             1    1     1       0.7178582511E-02       1    7    1         0.1135386817E-03      0.1917090301E-02
          0                 3           2             1    1     1      -0.5905251408E-03       3    2    1        -0.1021985108E-04      0.1783804226E-03
          0                 4           1             1    1     1       0.4275011159E-04      30    4    1        -0.9801511069E-06      0.1541767489E-04
          0                 5           1             1    1     1      -0.2417484313E-05      30    4    1         0.9687792968E-07      0.1122459199E-05
          0                 6           1             1    1     1       0.1177879676E-06      30    4    1        -0.7259295387E-08      0.7140215088E-07

    ------------------------------------------------
       NWT REQUIRED            6 OUTER ITERATIONS 
       AND A TOTAL OF         10 INNER ITERATIONS.
    ------------------------------------------------

 NO OUTPUT CONTROL FOR STRESS PERIOD   31   TIME STEP   29
 
 WELLS WITH REDUCED PUMPING FOR STRESS PERIOD    31 TIME STEP    29
   LAY   ROW   COL         APPL.Q          ACT.Q        GW-HEAD       CELL-BOT
     1     3    50  -0.800008E+00  -0.393598E+00   0.554021E-03   0.000000E+00
     1     5    55  -0.800008E+00  -0.301729E+00   0.463261E-03   0.000000E+00
 
 
 SOLVING FOR HEAD 
                                                   Max.-Head-Change                         Max.-Flux-Residual
  Residual-Control   Outer-Iter.   Inner-Iter.     Column Row Layer    Maximum-Head-Change  Column Row Layer    Maximum-Flux-Residual          L2-NORM 
          0                 1           3             1    1     1      -0.8587418411E-01       1    7    1        -0.1133840713E-02      0.1973360165E-01
          0                 2           2             1    1     1       0.7874327987E-02       1    7    1         0.1133754671E-03      0.1914671514E-02
          0                 3           2             1    1     1      -0.6466609713E-03       4    3    1        -0.1021261548E-04      0.1782232851E-03
          0                 4           1             1    1     1       0.4662102715E-04      30    4    1        -0.9837904216E-06      0.1541568942E-04
          0                 5           1             1    1     1      -0.2534360210E-05      30    4    1         0.9745362561E-07      0.1108558879E-05
          0                 6           1             1    1     1       0.1191204354E-06      30    4    1        -0.7272646485E-08      0.7017283105E-07

    ------------------------------------------------
       NWT REQUIRED            6 OUTER ITERATIONS 
       AND A TOTAL OF         10 INNER ITERATIONS.
    ------------------------------------------------

 NO OUTPUT CONTROL FOR STRESS PERIOD   31   TIME STEP   30
 
 WELLS WITH REDUCED PUMPING FOR STRESS PERIOD    31 TIME STEP    30
   LAY   ROW   COL         APPL.Q          ACT.Q        GW-HEAD       CELL-BOT
     1     3    50  -0.799996E+00  -0.392938E+00   0.553411E-03   0.000000E+00
     1     5    55  -0.799996E+00  -0.301122E+00   0.462688E-03   0.000000E+00
 



 STREAM LISTING     PERIOD     31   STEP       30

 LAYER ROW COL. STREAM  RCH.   FLOW INTO    STREAM     FLOW OUT OF   OVRLND.    DIRECT     STREAM      STREAM      STREAM     STREAM  STREAMBED   FLOW TO   CHNG. UNSAT. 
                SEG.NO.  NO.   STRM. RCH.    LOSS       STRM. RCH.   RUNOFF     PRECIP       ET         HEAD        DEPTH      WIDTH  CONDCTNC.   WAT. TAB.

   1    4    1     1     1    5.4600E+00  1.8346E-03   5.4582E+00  0.000E+00  0.000E+00  0.000E+00  1.41616E+02  1.766E+00  3.925E+00  8.098E-04  1.790E-03  4.471E-05
   1    4    2     1     2    5.4582E+00  1.8342E-03   5.4563E+00  0.000E+00  0.000E+00  0.000E+00  1.41315E+02  1.765E+00  3.925E+00  8.097E-04  1.789E-03  4.472E-05
   1    4    3     1     3    5.4563E+00  1.8337E-03   5.4545E+00  0.000E+00  0.000E+00  0.000E+00  1.41015E+02  1.765E+00  3.924E+00  8.096E-04  1.789E-03  4.472E-05
   1    4    4     1     4    5.4545E+00  1.8332E-03   5.4527E+00  0.000E+00  0.000E+00  0.000E+00  1.40715E+02  1.765E+00  3.924E+00  8.095E-04  1.789E-03  4.470E-05
   1    4    5     1     5    5.4527E+00  1.8327E-03   5.4508E+00  0.000E+00  0.000E+00  0.000E+00  1.40414E+02  1.764E+00  3.923E+00  8.094E-04  1.788E-03  4.467E-05
   1    4    6     1     6    5.4508E+00  1.8323E-03   5.4490E+00  0.000E+00  0.000E+00  0.000E+00  1.40114E+02  1.764E+00  3.923E+00  8.093E-04  1.788E-03  4.463E-05
   1    4    7     1     7    5.4490E+00  1.8318E-03   5.4472E+00  0.000E+00  0.000E+00  0.000E+00  1.39814E+02  1.764E+00  3.923E+00  8.092E-04  1.787E-03  4.457E-05
   1    4    8     1     8    5.4472E+00  1.8313E-03   5.4453E+00  0.000E+00  0.000E+00  0.000E+00  1.39513E+02  1.763E+00  3.922E+00  8.091E-04  1.787E-03  4.450E-05
   1    4    9     1     9    5.4453E+00  1.8308E-03   5.4435E+00  0.000E+00  0.000E+00  0.000E+00  1.39213E+02  1.763E+00  3.922E+00  8.090E-04  1.786E-03  4.441E-05
   1    4   10     1    10    5.4435E+00  1.8304E-03   5.4417E+00  0.000E+00  0.000E+00  0.000E+00  1.38913E+02  1.763E+00  3.922E+00  8.089E-04  1.786E-03  4.431E-05
   1    4   11     1    11    5.4417E+00  1.8299E-03   5.4398E+00  0.000E+00  0.000E+00  0.000E+00  1.38613E+02  1.763E+00  3.921E+00  8.088E-04  1.786E-03  4.419E-05
   1    4   12     1    12    5.4398E+00  1.8294E-03   5.4380E+00  0.000E+00  0.000E+00  0.000E+00  1.38312E+02  1.762E+00  3.921E+00  8.087E-04  1.785E-03  4.405E-05
   1    4   13     1    13    5.4380E+00  1.8290E-03   5.4362E+00  0.000E+00  0.000E+00  0.000E+00  1.38012E+02  1.762E+00  3.921E+00  8.086E-04  1.785E-03  4.390E-05
   1    4   14     1    14    5.4362E+00  1.8285E-03   5.4344E+00  0.000E+00  0.000E+00  0.000E+00  1.37712E+02  1.762E+00  3.920E+00  8.085E-04  1.785E-03  4.372E-05
   1    4   15     1    15    5.4344E+00  1.8280E-03   5.4325E+00  0.000E+00  0.000E+00  0.000E+00  1.37411E+02  1.761E+00  3.920E+00  8.084E-04  1.784E-03  4.352E-05
   1    4   16     1    16    5.4325E+00  1.8275E-03   5.4307E+00  0.000E+00  0.000E+00  0.000E+00  1.37111E+02  1.761E+00  3.919E+00  8.083E-04  1.784E-03  4.329E-05
   1    4   17     1    17    5.4307E+00  1.8271E-03   5.4289E+00  0.000E+00  0.000E+00  0.000E+00  1.36811E+02  1.761E+00  3.919E+00  8.082E-04  1.784E-03  4.305E-05
   1    4   18     1    18    5.4289E+00  1.8266E-03   5.4270E+00  0.000E+00  0.000E+00  0.000E+00  1.36510E+02  1.760E+00  3.919E+00  8.081E-04  1.784E-03  4.277E-05
   1    4   19     1    19    5.4270E+00  1.8261E-03   5.4252E+00  0.000E+00  0.000E+00  0.000E+00  1.36210E+02  1.760E+00  3.918E+00  8.080E-04  1.784E-03  4.246E-05
   1    4   20     1    20    5.4252E+00  1.8256E-03   5.4234E+00  0.000E+00  0.000E+00  0.000E+00  1.35910E+02  1.760E+00  3.918E+00  8.079E-04  1.784E-03  4.213E-05
   1    4   21     1    21    5.4234E+00  1.8252E-03   5.4216E+00  0.000E+00  0.000E+00  0.000E+00  1.35609E+02  1.759E+00  3.918E+00  8.078E-04  1.783E-03  4.176E-05
   1    4   22     1    22    5.4216E+00  1.8247E-03   5.4197E+00  0.000E+00  0.000E+00  0.000E+00  1.35309E+02  1.759E+00  3.917E+00  8.077E-04  1.783E-03  4.135E-05
   1    4   23     1    23    5.4197E+00  1.8242E-03   5.4179E+00  0.000E+00  0.000E+00  0.000E+00  1.35009E+02  1.759E+00  3.917E+00  8.076E-04  1.783E-03  4.091E-05
   1    4   24     1    24    5.4179E+00  1.8237E-03   5.4161E+00  0.000E+00  0.000E+00  0.000E+00  1.34709E+02  1.759E+00  3.916E+00  8.075E-04  1.783E-03  4.043E-05
   1    4   25     1    25    5.4161E+00  1.8233E-03   5.4143E+00  0.000E+00  0.000E+00  0.000E+00  1.34408E+02  1.758E+00  3.916E+00  8.074E-04  1.783E-03  3.991E-05
   1    4   26     1    26    5.4143E+00  1.8228E-03   5.4124E+00  0.000E+00  0.000E+00  0.000E+00  1.34108E+02  1.758E+00  3.916E+00  8.073E-04  1.783E-03  3.938E-05
   1    4   27     1    27    5.4124E+00  1.8223E-03   5.4106E+00  0.000E+00  0.000E+00  0.000E+00  1.33808E+02  1.758E+00  3.915E+00  8.072E-04  1.802E-03  2.081E-05
   1    4   28     1    28    5.4106E+00  1.8219E-03   5.4088E+00  0.000E+00  0.000E+00  0.000E+00  1.33507E+02  1.757E+00  3.915E+00  8.071E-04  1.802E-03  2.003E-05
   1    4   29     1    29    5.4088E+00  1.8214E-03   5.4070E+00  0.000E+00  0.000E+00  0.000E+00  1.33207E+02  1.757E+00  3.915E+00  8.070E-04  1.802E-03  1.920E-05
   1    4   30     1    30    5.4070E+00  1.8209E-03   5.4052E+00  0.000E+00  0.000E+00  0.000E+00  1.32907E+02  1.757E+00  3.914E+00  8.069E-04  1.803E-03  1.745E-05
   1    4   31     1    31    5.4052E+00  1.8204E-03   5.4033E+00  0.000E+00  0.000E+00  0.000E+00  1.32606E+02  1.756E+00  3.914E+00  8.068E-04  1.804E-03  1.635E-05
   1    4   32     1    32    5.4033E+00  1.8200E-03   5.4015E+00  0.000E+00  0.000E+00  0.000E+00  1.32306E+02  1.756E+00  3.914E+00  8.067E-04  1.805E-03  1.518E-05
   1    4   33     1    33    5.4015E+00  1.8195E-03   5.3997E+00  0.000E+00  0.000E+00  0.000E+00  1.32006E+02  1.756E+00  3.913E+00  8.066E-04  1.806E-03  1.391E-05
   1    4   34     1    34    5.3997E+00  1.8190E-03   5.3979E+00  0.000E+00  0.000E+00  0.000E+00  1.31705E+02  1.755E+00  3.913E+00  8.065E-04  1.806E-03  1.254E-05
   1    4   35     1    35    5.3979E+00  1.8186E-03   5.3961E+00  0.000E+00  0.000E+00  0.000E+00  1.31405E+02  1.755E+00  3.912E+00  8.064E-04  1.807E-03  1.108E-05
   1    4   36     1    36    5.3961E+00  1.8181E-03   5.3942E+00  0.000E+00  0.000E+00  0.000E+00  1.31105E+02  1.755E+00  3.912E+00  8.063E-04  1.826E-03 -7.631E-06
   1    4   37     1    37    5.3942E+00  1.8176E-03   5.3924E+00  0.000E+00  0.000E+00  0.000E+00  1.30805E+02  1.755E+00  3.912E+00  8.062E-04  1.840E-03 -2.193E-05
   1    4   38     1    38    5.3924E+00  1.8171E-03   5.3906E+00  0.000E+00  0.000E+00  0.000E+00  1.30504E+02  1.754E+00  3.911E+00  8.061E-04  1.841E-03 -2.383E-05
   1    4   39     1    39    5.3906E+00  1.8167E-03   5.3888E+00  0.000E+00  0.000E+00  0.000E+00  1.30204E+02  1.754E+00  3.911E+00  8.060E-04  1.843E-03 -2.586E-05
   1    4   40     1    40    5.3888E+00  1.8162E-03   5.3870E+00  0.000E+00  0.000E+00  0.000E+00  1.29904E+02  1.754E+00  3.911E+00  8.059E-04  1.844E-03 -2.804E-05
   1    4   41     1    41    5.3870E+00  1.8157E-03   5.3852E+00  0.000E+00  0.000E+00  0.000E+00  1.29603E+02  1.753E+00  3.910E+00  8.058E-04  1.846E-03 -3.036E-05
   1    4   42     1    42    5.3852E+00  1.8153E-03   5.3833E+00  0.000E+00  0.000E+00  0.000E+00  1.29303E+02  1.753E+00  3.910E+00  8.057E-04  1.848E-03 -3.286E-05
   1    4   43     1    43    5.3833E+00  1.8148E-03   5.3815E+00  0.000E+00  0.000E+00  0.000E+00  1.29003E+02  1.753E+00  3.910E+00  8.056E-04  1.916E-03 -1.009E-04
   1    4   44     1    44    5.3815E+00  1.8143E-03   5.3797E+00  0.000E+00  0.000E+00  0.000E+00  1.28702E+02  1.752E+00  3.909E+00  8.055E-04  1.918E-03 -1.042E-04
   1    4   45     1    45    5.3797E+00  1.8138E-03   5.3779E+00  0.000E+00  0.000E+00  0.000E+00  1.28402E+02  1.752E+00  3.909E+00  8.054E-04  1.922E-03 -1.077E-04
   1    4   46     1    46    5.3779E+00  1.8134E-03   5.3761E+00  0.000E+00  0.000E+00  0.000E+00  1.28102E+02  1.752E+00  3.908E+00  8.053E-04  1.925E-03 -1.113E-04
   1    4   47     1    47    5.3761E+00  1.8129E-03   5.3743E+00  0.000E+00  0.000E+00  0.000E+00  1.27802E+02  1.752E+00  3.908E+00  8.052E-04  1.928E-03 -1.148E-04
   1    4   48     1    48    5.3743E+00  1.8124E-03   5.3725E+00  0.000E+00  0.000E+00  0.000E+00  1.27501E+02  1.751E+00  3.908E+00  8.051E-04  1.948E-03 -1.357E-04
   1    4   49     1    49    5.3725E+00  1.8120E-03   5.3707E+00  0.000E+00  0.000E+00  0.000E+00  1.27201E+02  1.751E+00  3.907E+00  8.050E-04  2.069E-03 -2.571E-04
   1    4   50     1    50    5.3707E+00  1.8115E-03   5.3688E+00  0.000E+00  0.000E+00  0.000E+00  1.26901E+02  1.751E+00  3.907E+00  8.049E-04  2.277E-03 -4.658E-04
   1    4   51     1    51    5.3688E+00  1.8110E-03   5.3670E+00  0.000E+00  0.000E+00  0.000E+00  1.26600E+02  1.750E+00  3.907E+00  8.048E-04  2.255E-03 -4.439E-04
   1    4   52     1    52    5.3670E+00  1.8106E-03   5.3652E+00  0.000E+00  0.000E+00  0.000E+00  1.26300E+02  1.750E+00  3.906E+00  8.047E-04  2.246E-03 -4.354E-04
   1    4   53     1    53    5.3652E+00  1.8101E-03   5.3634E+00  0.000E+00  0.000E+00  0.000E+00  1.26000E+02  1.750E+00  3.906E+00  8.046E-04  2.245E-03 -4.349E-04
   1    4   54     1    54    5.3634E+00  1.8096E-03   5.3616E+00  0.000E+00  0.000E+00  0.000E+00  1.25699E+02  1.749E+00  3.906E+00  8.045E-04  2.251E-03 -4.416E-04
   1    4   55     1    55    5.3616E+00  1.8091E-03   5.3598E+00  0.000E+00  0.000E+00  0.000E+00  1.25399E+02  1.749E+00  3.905E+00  8.044E-04  2.270E-03 -4.606E-04
   1    4   56     1    56    5.3598E+00  1.8087E-03   5.3580E+00  0.000E+00  0.000E+00  0.000E+00  1.25099E+02  1.749E+00  3.905E+00  8.043E-04  2.078E-03 -2.692E-04
   1    4   57     1    57    5.3580E+00  1.8082E-03   5.3562E+00  0.000E+00  0.000E+00  0.000E+00  1.24798E+02  1.748E+00  3.904E+00  8.042E-04  1.952E-03 -1.437E-04
   1    4   58     1    58    5.3562E+00  1.8077E-03   5.3544E+00  0.000E+00  0.000E+00  0.000E+00  1.24498E+02  1.748E+00  3.904E+00  8.041E-04  1.919E-03 -1.109E-04
   1    4   59     1    59    5.3544E+00  1.8073E-03   5.3526E+00  0.000E+00  0.000E+00  0.000E+00  1.24198E+02  1.748E+00  3.904E+00  8.040E-04  1.914E-03 -1.072E-04
   1    4   60     1    60    5.3526E+00  1.8068E-03   5.3508E+00  0.000E+00  0.000E+00  0.000E+00  1.23898E+02  1.748E+00  3.903E+00  8.039E-04  1.910E-03 -1.035E-04
   1    4   61     1    61    5.3508E+00  1.8063E-03   5.3489E+00  0.000E+00  0.000E+00  0.000E+00  1.23597E+02  1.747E+00  3.903E+00  8.038E-04  1.906E-03 -9.996E-05
   1    4   62     1    62    5.3489E+00  1.8059E-03   5.3471E+00  0.000E+00  0.000E+00  0.000E+00  1.23297E+02  1.747E+00  3.903E+00  8.037E-04  1.903E-03 -9.668E-05
   1    4   63     1    63    5.3471E+00  1.8054E-03   5.3453E+00  0.000E+00  0.000E+00  0.000E+00  1.22997E+02  1.747E+00  3.902E+00  8.036E-04  1.884E-03 -7.904E-05
   1    4   64     1    64    5.3453E+00  1.8049E-03   5.3435E+00  0.000E+00  0.000E+00  0.000E+00  1.22696E+02  1.746E+00  3.902E+00  8.035E-04  1.832E-03 -2.670E-05
   1    4   65     1    65    5.3435E+00  1.8045E-03   5.3417E+00  0.000E+00  0.000E+00  0.000E+00  1.22396E+02  1.746E+00  3.901E+00  8.034E-04  1.829E-03 -2.467E-05
   1    4   66     1    66    5.3417E+00  1.8040E-03   5.3399E+00  0.000E+00  0.000E+00  0.000E+00  1.22096E+02  1.746E+00  3.901E+00  8.033E-04  1.827E-03 -2.292E-05
   1    4   67     1    67    5.3399E+00  1.8035E-03   5.3381E+00  0.000E+00  0.000E+00  0.000E+00  1.21795E+02  1.745E+00  3.901E+00  8.032E-04  1.825E-03 -2.144E-05
   1    4   68     1    68    5.3381E+00  1.8031E-03   5.3363E+00  0.000E+00  0.000E+00  0.000E+00  1.21495E+02  1.745E+00  3.900E+00  8.031E-04  1.823E-03 -2.021E-05
   1    4   69     1    69    5.3363E+00  1.8026E-03   5.3345E+00  0.000E+00  0.000E+00  0.000E+00  1.21195E+02  1.745E+00  3.900E+00  8.030E-04  1.822E-03 -1.923E-05
   1    4   70     1    70    5.3345E+00  1.8021E-03   5.3327E+00  0.000E+00  0.000E+00  0.000E+00  1.20895E+02  1.744E+00  3.900E+00  8.029E-04  1.821E-03 -1.849E-05
   1    4   71     1    71    5.3327E+00  1.8016E-03   5.3309E+00  0.000E+00  0.000E+00  0.000E+00  1.20594E+02  1.744E+00  3.899E+00  8.028E-04  1.820E-03 -1.798E-05
   1    4   72     1    72    5.3309E+00  1.8012E-03   5.3291E+00  0.000E+00  0.000E+00  0.000E+00  1.20294E+02  1.744E+00  3.899E+00  8.027E-04  1.792E-03  9.199E-06
   1    4   73     1    73    5.3291E+00  1.8007E-03   5.3273E+00  0.000E+00  0.000E+00  0.000E+00  1.19994E+02  1.744E+00  3.899E+00  8.026E-04  1.792E-03  9.140E-06
   1    4   74     1    74    5.3273E+00  1.8002E-03   5.3255E+00  0.000E+00  0.000E+00  0.000E+00  1.19693E+02  1.743E+00  3.898E+00  8.025E-04  1.791E-03  8.880E-06
   1    4   75     1    75    5.3255E+00  1.7998E-03   5.3237E+00  0.000E+00  0.000E+00  0.000E+00  1.19393E+02  1.743E+00  3.898E+00  8.024E-04  1.791E-03  8.422E-06
   1    4   76     1    76    5.3237E+00  1.7993E-03   5.3219E+00  0.000E+00  0.000E+00  0.000E+00  1.19093E+02  1.743E+00  3.897E+00  8.023E-04  1.792E-03  7.782E-06
   1    4   77     1    77    5.3219E+00  1.7988E-03   5.3201E+00  0.000E+00  0.000E+00  0.000E+00  1.18792E+02  1.742E+00  3.897E+00  8.022E-04  1.792E-03  6.964E-06
   1    4   78     1    78    5.3201E+00  1.7984E-03   5.3183E+00  0.000E+00  0.000E+00  0.000E+00  1.18492E+02  1.742E+00  3.897E+00  8.021E-04  1.792E-03  5.974E-06
   1    4   79     1    79    5.3183E+00  1.7979E-03   5.3165E+00  0.000E+00  0.000E+00  0.000E+00  1.18192E+02  1.742E+00  3.896E+00  8.020E-04  1.774E-03  2.357E-05
   1    4   80     1    80    5.3165E+00  1.7974E-03   5.3147E+00  0.000E+00  0.000E+00  0.000E+00  1.17891E+02  1.741E+00  3.896E+00  8.019E-04  1.775E-03  2.229E-05
   1    4   81     1    81    5.3147E+00  1.7970E-03   5.3129E+00  0.000E+00  0.000E+00  0.000E+00  1.17591E+02  1.741E+00  3.896E+00  8.018E-04  1.776E-03  2.086E-05
   1    4   82     1    82    5.3129E+00  1.7965E-03   5.3111E+00  0.000E+00  0.000E+00  0.000E+00  1.17291E+02  1.741E+00  3.895E+00  8.017E-04  1.777E-03  1.931E-05
   1    4   83     1    83    5.3111E+00  1.7960E-03   5.3093E+00  0.000E+00  0.000E+00  0.000E+00  1.16991E+02  1.741E+00  3.895E+00  8.016E-04  1.778E-03  1.763E-05
   1    4   84     1    84    5.3093E+00  1.7956E-03   5.3075E+00  0.000E+00  0.000E+00  0.000E+00  1.16690E+02  1.740E+00  3.895E+00  8.015E-04  1.780E-03  1.583E-05
   1    4   85     1    85    5.3075E+00  1.7951E-03   5.3057E+00  0.000E+00  0.000E+00  0.000E+00  1.16390E+02  1.740E+00  3.894E+00  8.014E-04  1.781E-03  1.394E-05
   1    4   86     1    86    5.3057E+00  1.7946E-03   5.3039E+00  0.000E+00  0.000E+00  0.000E+00  1.16090E+02  1.740E+00  3.894E+00  8.013E-04  1.783E-03  1.196E-05
   1    4   87     1    87    5.3039E+00  1.7942E-03   5.3021E+00  0.000E+00  0.000E+00  0.000E+00  1.15789E+02  1.739E+00  3.893E+00  8.012E-04  1.784E-03  9.902E-06
   1    4   88     1    88    5.3021E+00  1.7937E-03   5.3004E+00  0.000E+00  0.000E+00  0.000E+00  1.15489E+02  1.739E+00  3.893E+00  8.011E-04  1.786E-03  7.770E-06
   1    4   89     1    89    5.3004E+00  1.7932E-03   5.2986E+00  0.000E+00  0.000E+00  0.000E+00  1.15189E+02  1.739E+00  3.893E+00  8.010E-04  1.788E-03  5.576E-06
   1    4   90     1    90    5.2986E+00  1.7928E-03   5.2968E+00  0.000E+00  0.000E+00  0.000E+00  1.14888E+02  1.738E+00  3.892E+00  8.009E-04  1.789E-03  3.321E-06
   1    4   91     1    91    5.2968E+00  1.7923E-03   5.2950E+00  0.000E+00  0.000E+00  0.000E+00  1.14588E+02  1.738E+00  3.892E+00  8.008E-04  1.791E-03  1.015E-06
   1    4   92     1    92    5.2950E+00  1.7918E-03   5.2932E+00  0.000E+00  0.000E+00  0.000E+00  1.14288E+02  1.738E+00  3.892E+00  8.007E-04  1.793E-03 -1.348E-06
   1    4   93     1    93    5.2932E+00  1.7914E-03   5.2914E+00  0.000E+00  0.000E+00  0.000E+00  1.13987E+02  1.737E+00  3.891E+00  8.006E-04  1.795E-03 -3.763E-06
   1    4   94     1    94    5.2914E+00  1.7909E-03   5.2896E+00  0.000E+00  0.000E+00  0.000E+00  1.13687E+02  1.737E+00  3.891E+00  8.005E-04  1.797E-03 -6.234E-06
   1    4   95     1    95    5.2896E+00  1.7904E-03   5.2878E+00  0.000E+00  0.000E+00  0.000E+00  1.13387E+02  1.737E+00  3.891E+00  8.004E-04  1.799E-03 -8.762E-06
   1    4   96     1    96    5.2878E+00  1.7900E-03   5.2860E+00  0.000E+00  0.000E+00  0.000E+00  1.13087E+02  1.737E+00  3.890E+00  8.003E-04  1.801E-03 -1.134E-05
   1    4   97     1    97    5.2860E+00  1.7895E-03   5.2842E+00  0.000E+00  0.000E+00  0.000E+00  1.12786E+02  1.736E+00  3.890E+00  8.002E-04  1.803E-03 -1.398E-05
   1    4   98     1    98    5.2842E+00  1.7891E-03   5.2824E+00  0.000E+00  0.000E+00  0.000E+00  1.12486E+02  1.736E+00  3.889E+00  8.001E-04  1.806E-03 -1.666E-05
   1    4   99     1    99    5.2824E+00  1.7886E-03   5.2807E+00  0.000E+00  0.000E+00  0.000E+00  1.12186E+02  1.736E+00  3.889E+00  8.000E-04  1.808E-03 -1.936E-05
   1    4  100     1   100    5.2807E+00  1.7881E-03   5.2789E+00  0.000E+00  0.000E+00  0.000E+00  1.11885E+02  1.735E+00  3.889E+00  7.999E-04  1.810E-03 -2.207E-05



1
  VOLUMETRIC BUDGET FOR UNSATURATED ZONE BENEATH STREAMS AT END OF TIME STEP    30 STRESS PERIOD  31
  ------------------------------------------------------------------------------------------------

    CUMULATIVE VOLUMES             L**3    RATES FOR THIS TIME STEP         L**3/T
    ------------------                     ------------------------


          STREAM LOSS =     29323686.0000            STREAM LOSS =            0.1811
    CHANGE IN STORAGE =      1425091.1250      CHANGE IN STORAGE =       -3.5711E-03
       RECHARGE TO GW =     27906022.0000         RECHARGE TO GW =            0.1847

             TOTAL IN =     29323686.0000               TOTAL IN =            0.1847

            TOTAL OUT =     29331114.0000              TOTAL OUT =            0.1847

             IN - OUT =        -7428.0000               IN - OUT =        1.0431E-07

  PERCENT DISCREPANCY =           -0.01      PERCENT DISCREPANCY =             0.00



1
  VOLUMETRIC BUDGET FOR ENTIRE MODEL AT END OF TIME STEP   30, STRESS PERIOD  31
  ------------------------------------------------------------------------------

     CUMULATIVE VOLUMES      L**3       RATES FOR THIS TIME STEP      L**3/T
     ------------------                 ------------------------

           IN:                                      IN:
           ---                                      ---
             STORAGE     =   100985792.0000               STORAGE     =           0.4696
       CONSTANT HEAD     =           0.0000         CONSTANT HEAD     =           0.0000
               WELLS     =           0.0000                 WELLS     =           0.0000
     HEAD DEP BOUNDS     =      344315.0312       HEAD DEP BOUNDS     =       3.9766E-02
      STREAM LEAKAGE     =    27905570.0000        STREAM LEAKAGE     =           0.1847

                TOTAL IN =   129235672.0000                  TOTAL IN =           0.6941

          OUT:                                     OUT:
          ----                                     ----
             STORAGE     =     3027673.7500               STORAGE     =           0.0000
       CONSTANT HEAD     =           0.0000         CONSTANT HEAD     =           0.0000
               WELLS     =   109848624.0000                 WELLS     =           0.6941
     HEAD DEP BOUNDS     =    16359348.0000       HEAD DEP BOUNDS     =           0.0000
      STREAM LEAKAGE     =           0.0000        STREAM LEAKAGE     =           0.0000

               TOTAL OUT =   129235648.0000                 TOTAL OUT =           0.6941

                IN - OUT =          24.0000                  IN - OUT =      -5.9605E-08

     PERCENT DISCREPANCY =           0.00         PERCENT DISCREPANCY =          -0.00






         TIME SUMMARY AT END OF TIME STEP   30 IN STRESS PERIOD   31
                    SECONDS     MINUTES      HOURS       DAYS        YEARS
                    -----------------------------------------------------------
   TIME STEP LENGTH 2.49961E+05  4166.0      69.434      2.8931     7.92080E-03
 STRESS PERIOD TIME 2.59200E+06  43200.      720.00      30.000     8.21355E-02
         TOTAL TIME 8.03520E+07 1.33920E+06  22320.      930.00      2.5462    
1
1
                            STRESS PERIOD NO.   32, LENGTH =   2592000.    
                            -----------------------------------------------

                              NUMBER OF TIME STEPS =    30

                               MULTIPLIER FOR DELT =     1.100

                            INITIAL TIME STEP SIZE =   15757.40    

 REUSING NON-PARAMETER WELLS FROM LAST STRESS PERIOD

      1 WELL 

 REUSING NON-PARAMETER GHB CELLS FROM LAST STRESS PERIOD

      7 GHB CELLS



 CLASSIFICATION & COUNT OF STREAM SEGMENTS BASED ON SOURCE OF INFLOW:

                HEADWATER     DIVERSION     RECEIVES TRIBUTARY FLOW
                ---------     ---------     -----------------------
                     1              0               0



                    INPUT DATA FOR EACH STREAM SEGMENT
 ---------------------------------------------------------------------------------------------

 SEGMENT    SEG.     INFLOW   OVERLAND   STREAM    STREAM   ICALC  OUTFLOW  DIVERSION PRIORITY
    NO.    LENGTH     RATE     RUNOFF      ET       PPT.    METH.  TO SEG.  FROM SEG.    NO.

      1  2.000E+04 6.270E+00 0.000E+00 0.000E+00 0.000E+00    2        0        0        0


         STREAMBED PROPERTIES AND STREAM DIMENSIONS

 SEGMENT     BED HYD. COND.      BED THICKNESS     ELEV.-TOP OF BED     WIDTH OF STREAM     DEPTH OF STREAM    STREAM ROUGHNESS
    No.     UPPER     LOWER     UPPER     LOWER     UPPER     LOWER     UPPER     LOWER     UPPER     LOWER   CHANNEL      BANK

     1  3.500E-07 3.500E-07                                                                                 3.000E-02 4.000E-02

  EIGHT POINT CROSS-SECTION DATA FOR SEGMENTS WITH ICALC = 2
    X VALUES X VALUES START FROM LEFT SIDE LOOKING DOWNSTREAM

     SEGMENT NO.        X1        X2        X3        X4        X5        X6        X7        X8
            1      0.000E+00 2.000E+00 4.000E+00 6.000E+00 8.000E+00 1.000E+01 1.200E+01 1.400E+01

    Z VALUES ARE RELATIVE TO STREAMBED ELEVATION

     SEGMENT NO.          Z1        Z2        Z3        Z4        Z5        Z6        Z7        Z8
            1      6.000E+00 4.500E+00 3.500E+00 0.000E+00 3.000E-01 3.500E+00 4.500E+00 6.000E+00



 
 SOLVING FOR HEAD 
                                                   Max.-Head-Change                         Max.-Flux-Residual
  Residual-Control   Outer-Iter.   Inner-Iter.     Column Row Layer    Maximum-Head-Change  Column Row Layer    Maximum-Flux-Residual          L2-NORM 
          0                 1           2             1    1     1      -0.5441409280E-02      50    3    1        -0.2356307205E+00      0.2975148666E+00
          0                 2           2             1    1     1       0.5301055909E-03      50    3    1         0.1643001171E-01      0.1825946508E-01
          0                 3           1             1    1     1      -0.4667610770E-04      50    3    1        -0.1587232094E-02      0.1757407252E-02
          0                 4           1             1    1     1       0.3670919904E-05      50    3    1         0.1262116246E-03      0.1398253555E-03
          0                 5           1             1    1     1      -0.2541262271E-06      50    3    1        -0.8878340493E-05      0.9837297288E-05

    ------------------------------------------------
       NWT REQUIRED            5 OUTER ITERATIONS 
       AND A TOTAL OF          7 INNER ITERATIONS.
    ------------------------------------------------

 NO OUTPUT CONTROL FOR STRESS PERIOD   32   TIME STEP    1
 
 WELLS WITH REDUCED PUMPING FOR STRESS PERIOD    32 TIME STEP     1
   LAY   ROW   COL         APPL.Q          ACT.Q        GW-HEAD       CELL-BOT
     1     3    50  -0.127972E+01  -0.392893E+00   0.412492E-03   0.000000E+00
     1     5    55  -0.127972E+01  -0.301077E+00   0.349739E-03   0.000000E+00
 
 
 SOLVING FOR HEAD 
                                                   Max.-Head-Change                         Max.-Flux-Residual
  Residual-Control   Outer-Iter.   Inner-Iter.     Column Row Layer    Maximum-Head-Change  Column Row Layer    Maximum-Flux-Residual          L2-NORM 
          0                 1           2             1    1     1      -0.5983818998E-02       1    1    1        -0.1131947246E-02      0.1967144174E-01
          0                 2           2             1    1     1       0.5817921553E-03       1    1    1         0.1131945827E-03      0.1909864111E-02
          0                 3           1             1    1     1      -0.5113456982E-04       1    1    1        -0.1018752906E-04      0.1744016714E-03
          0                 4           1             1    1     1       0.4015251422E-05       1    1    1         0.8160210960E-06      0.1427986984E-04
          0                 5           1             1    1     1      -0.2776056985E-06       1    7    1        -0.5736549324E-07      0.1022121893E-05

    ------------------------------------------------
       NWT REQUIRED            5 OUTER ITERATIONS 
       AND A TOTAL OF          7 INNER ITERATIONS.
    ------------------------------------------------

 NO OUTPUT CONTROL FOR STRESS PERIOD   32   TIME STEP    2
 
 WELLS WITH REDUCED PUMPING FOR STRESS PERIOD    32 TIME STEP     2
   LAY   ROW   COL         APPL.Q          ACT.Q        GW-HEAD       CELL-BOT
     1     3    50  -0.128021E+01  -0.392815E+00   0.412350E-03   0.000000E+00
     1     5    55  -0.128021E+01  -0.301007E+00   0.349616E-03   0.000000E+00
 
 
 SOLVING FOR HEAD 
                                                   Max.-Head-Change                         Max.-Flux-Residual
  Residual-Control   Outer-Iter.   Inner-Iter.     Column Row Layer    Maximum-Head-Change  Column Row Layer    Maximum-Flux-Residual          L2-NORM 
          0                 1           2             1    1     1      -0.6580161799E-02       1    1    1        -0.1131823568E-02      0.1966778537E-01
          0                 2           2             1    1     1       0.6384319445E-03       1    1    1         0.1131821837E-03      0.1909627021E-02
          0                 3           1             1    1     1      -0.5600298754E-04       1    1    1        -0.1018641647E-04      0.1745423077E-03
          0                 4           1             1    1     1       0.4389884381E-05       1    1    1         0.8159319300E-06      0.1432106807E-04
          0                 5           1             1    1     1      -0.3030621912E-06       1    1    1        -0.5735923381E-07      0.1027474789E-05

    ------------------------------------------------
       NWT REQUIRED            5 OUTER ITERATIONS 
       AND A TOTAL OF          7 INNER ITERATIONS.
    ------------------------------------------------

 NO OUTPUT CONTROL FOR STRESS PERIOD   32   TIME STEP    3
 
 WELLS WITH REDUCED PUMPING FOR STRESS PERIOD    32 TIME STEP     3
   LAY   ROW   COL         APPL.Q          ACT.Q        GW-HEAD       CELL-BOT
     1     3    50  -0.127983E+01  -0.392743E+00   0.412377E-03   0.000000E+00
     1     5    55  -0.127983E+01  -0.300938E+00   0.349629E-03   0.000000E+00
 
 
 SOLVING FOR HEAD 
                                                   Max.-Head-Change                         Max.-Flux-Residual
  Residual-Control   Outer-Iter.   Inner-Iter.     Column Row Layer    Maximum-Head-Change  Column Row Layer    Maximum-Flux-Residual          L2-NORM 
          0                 1           2             1    1     1      -0.7235785769E-02       1    1    1        -0.1131687598E-02      0.1966249628E-01
          0                 2           2             1    1     1       0.7004974007E-03       1    1    1         0.1131685497E-03      0.1909321003E-02
          0                 3           1             1    1     1      -0.6131829573E-04       1    1    1        -0.1018519334E-04      0.1746802613E-03
          0                 4           1             1    1     1       0.4797329062E-05       1    1    1         0.8158339000E-06      0.1436313367E-04
          0                 5           1             1    1     1      -0.3306419335E-06       1    1    1        -0.5735233444E-07      0.1033064412E-05

    ------------------------------------------------
       NWT REQUIRED            5 OUTER ITERATIONS 
       AND A TOTAL OF          7 INNER ITERATIONS.
    ------------------------------------------------

 NO OUTPUT CONTROL FOR STRESS PERIOD   32   TIME STEP    4
 
 WELLS WITH REDUCED PUMPING FOR STRESS PERIOD    32 TIME STEP     4
   LAY   ROW   COL         APPL.Q          ACT.Q        GW-HEAD       CELL-BOT
     1     3    50  -0.128018E+01  -0.392666E+00   0.412263E-03   0.000000E+00
     1     5    55  -0.128018E+01  -0.300869E+00   0.349528E-03   0.000000E+00
 
 
 SOLVING FOR HEAD 
                                                   Max.-Head-Change                         Max.-Flux-Residual
  Residual-Control   Outer-Iter.   Inner-Iter.     Column Row Layer    Maximum-Head-Change  Column Row Layer    Maximum-Flux-Residual          L2-NORM 
          0                 1           2             1    1     1      -0.7956567286E-02       1    1    1        -0.1131538121E-02      0.1965692942E-01
          0                 2           2             1    1     1       0.7685077491E-03       1    1    1         0.1131535585E-03      0.1908848447E-02
          0                 3           1             1    1     1      -0.6712105155E-04       1    1    1        -0.1018384874E-04      0.1748029699E-03
          0                 4           1             1    1     1       0.5240339334E-05       1    1    1         0.8157261320E-06      0.1440499229E-04
          0                 5           1             1    1     1      -0.3605048692E-06       1    4    1         0.5785741664E-07      0.1038814812E-05

    ------------------------------------------------
       NWT REQUIRED            5 OUTER ITERATIONS 
       AND A TOTAL OF          7 INNER ITERATIONS.
    ------------------------------------------------

 NO OUTPUT CONTROL FOR STRESS PERIOD   32   TIME STEP    5
 
 WELLS WITH REDUCED PUMPING FOR STRESS PERIOD    32 TIME STEP     5
   LAY   ROW   COL         APPL.Q          ACT.Q        GW-HEAD       CELL-BOT
     1     3    50  -0.128009E+01  -0.392583E+00   0.412228E-03   0.000000E+00
     1     5    55  -0.128009E+01  -0.300788E+00   0.349488E-03   0.000000E+00
 
 
 SOLVING FOR HEAD 
                                                   Max.-Head-Change                         Max.-Flux-Residual
  Residual-Control   Outer-Iter.   Inner-Iter.     Column Row Layer    Maximum-Head-Change  Column Row Layer    Maximum-Flux-Residual          L2-NORM 
          0                 1           2             1    1     1      -0.8748964579E-02       1    1    1        -0.1131373771E-02      0.1965149375E-01
          0                 2           2             1    1     1       0.8430340746E-03       1    1    1         0.1131370727E-03      0.1908337942E-02
          0                 3           1             1    1     1      -0.7345585670E-04       1    1    1        -0.1018237040E-04      0.1749215429E-03
          0                 4           1             1    1     1       0.5721934262E-05       1    1    1         0.8156076490E-06      0.1444734600E-04
          0                 5           1             1    1     1      -0.3928246878E-06       1    4    1         0.5993464214E-07      0.1044762532E-05

    ------------------------------------------------
       NWT REQUIRED            5 OUTER ITERATIONS 
       AND A TOTAL OF          7 INNER ITERATIONS.
    ------------------------------------------------

 NO OUTPUT CONTROL FOR STRESS PERIOD   32   TIME STEP    6
 
 WELLS WITH REDUCED PUMPING FOR STRESS PERIOD    32 TIME STEP     6
   LAY   ROW   COL         APPL.Q          ACT.Q        GW-HEAD       CELL-BOT
     1     3    50  -0.127993E+01  -0.392492E+00   0.412202E-03   0.000000E+00
     1     5    55  -0.127993E+01  -0.300705E+00   0.349458E-03   0.000000E+00
 
 
 SOLVING FOR HEAD 
                                                   Max.-Head-Change                         Max.-Flux-Residual
  Residual-Control   Outer-Iter.   Inner-Iter.     Column Row Layer    Maximum-Head-Change  Column Row Layer    Maximum-Flux-Residual          L2-NORM 
          0                 1           2             1    1     1      -0.9620072105E-02       1    1    1        -0.1131193041E-02      0.1964440638E-01
          0                 2           2             1    1     1       0.9247044867E-03       1    1    1         0.1131189406E-03      0.1907747151E-02
          0                 3           1             1    1     1      -0.8037179689E-04       1    1    1        -0.1018074474E-04      0.1750315959E-03
          0                 4           1             1    1     1       0.6245428852E-05       1    1    1         0.8154773461E-06      0.1448965808E-04
          0                 5           1             1    1     1      -0.4277914921E-06       1    4    1         0.6196723490E-07      0.1050855181E-05

    ------------------------------------------------
       NWT REQUIRED            5 OUTER ITERATIONS 
       AND A TOTAL OF          7 INNER ITERATIONS.
    ------------------------------------------------

 NO OUTPUT CONTROL FOR STRESS PERIOD   32   TIME STEP    7
 
 WELLS WITH REDUCED PUMPING FOR STRESS PERIOD    32 TIME STEP     7
   LAY   ROW   COL         APPL.Q          ACT.Q        GW-HEAD       CELL-BOT
     1     3    50  -0.127985E+01  -0.392394E+00   0.412154E-03   0.000000E+00
     1     5    55  -0.127985E+01  -0.300610E+00   0.349406E-03   0.000000E+00
 
 
 SOLVING FOR HEAD 
                                                   Max.-Head-Change                         Max.-Flux-Residual
  Residual-Control   Outer-Iter.   Inner-Iter.     Column Row Layer    Maximum-Head-Change  Column Row Layer    Maximum-Flux-Residual          L2-NORM 
          0                 1           2             1    1     1      -0.1057768571E-01       1    1    1        -0.1130994276E-02      0.1963793457E-01
          0                 2           2             1    1     1       0.1014210299E-02       1    1    1         0.1130989954E-03      0.1907065138E-02
          0                 3           1             1    1     1      -0.8792296770E-04       1    1    1        -0.1017895689E-04      0.1751317326E-03
          0                 4           1             1    1     1       0.6814469638E-05       1    1    1         0.8153340403E-06      0.1453161628E-04
          0                 5           1             1    1     1      -0.4656131698E-06       1    4    1         0.6394901320E-07      0.1057053404E-05

    ------------------------------------------------
       NWT REQUIRED            5 OUTER ITERATIONS 
       AND A TOTAL OF          7 INNER ITERATIONS.
    ------------------------------------------------

 NO OUTPUT CONTROL FOR STRESS PERIOD   32   TIME STEP    8
 
 WELLS WITH REDUCED PUMPING FOR STRESS PERIOD    32 TIME STEP     8
   LAY   ROW   COL         APPL.Q          ACT.Q        GW-HEAD       CELL-BOT
     1     3    50  -0.127989E+01  -0.392283E+00   0.412078E-03   0.000000E+00
     1     5    55  -0.127989E+01  -0.300510E+00   0.349333E-03   0.000000E+00
 
 
 SOLVING FOR HEAD 
                                                   Max.-Head-Change                         Max.-Flux-Residual
  Residual-Control   Outer-Iter.   Inner-Iter.     Column Row Layer    Maximum-Head-Change  Column Row Layer    Maximum-Flux-Residual          L2-NORM 
          0                 1           2             1    1     1      -0.1163036770E-01       1    1    1        -0.1130775655E-02      0.1962939069E-01
          0                 2           2             1    1     1       0.1112312187E-02       1    1    1         0.1130770543E-03      0.1906336629E-02
          0                 3           1             1    1     1      -0.9616899667E-04       1    1    1        -0.1017699048E-04      0.1752250647E-03
          0                 4           1             1    1     1       0.7433068223E-05       1    1    1         0.8151764135E-06      0.1457322416E-04
          0                 5           1             1    1     1      -0.5065175490E-06       1    4    1         0.6587418611E-07      0.1063335105E-05

    ------------------------------------------------
       NWT REQUIRED            5 OUTER ITERATIONS 
       AND A TOTAL OF          7 INNER ITERATIONS.
    ------------------------------------------------

 NO OUTPUT CONTROL FOR STRESS PERIOD   32   TIME STEP    9
 
 WELLS WITH REDUCED PUMPING FOR STRESS PERIOD    32 TIME STEP     9
   LAY   ROW   COL         APPL.Q          ACT.Q        GW-HEAD       CELL-BOT
     1     3    50  -0.127995E+01  -0.392165E+00   0.411993E-03   0.000000E+00
     1     5    55  -0.127995E+01  -0.300397E+00   0.349248E-03   0.000000E+00
 
 
 SOLVING FOR HEAD 
                                                   Max.-Head-Change                         Max.-Flux-Residual
  Residual-Control   Outer-Iter.   Inner-Iter.     Column Row Layer    Maximum-Head-Change  Column Row Layer    Maximum-Flux-Residual          L2-NORM 
          0                 1           2             1    1     1      -0.1278752509E-01       1    1    1        -0.1130535180E-02      0.1961987102E-01
          0                 2           2             1    1     1       0.1219847553E-02       1    1    1         0.1130529159E-03      0.1905494380E-02
          0                 3           1             1    1     1      -0.1051756628E-03       1    1    1        -0.1017482753E-04      0.1753050728E-03
          0                 4           1             1    1     1       0.8105637839E-05       1    1    1         0.8150030446E-06      0.1461372159E-04
          0                 5           1             1    1     1      -0.5507535886E-06       1    4    1         0.6773744943E-07      0.1069622891E-05

    ------------------------------------------------
       NWT REQUIRED            5 OUTER ITERATIONS 
       AND A TOTAL OF          7 INNER ITERATIONS.
    ------------------------------------------------

 NO OUTPUT CONTROL FOR STRESS PERIOD   32   TIME STEP   10
 
 WELLS WITH REDUCED PUMPING FOR STRESS PERIOD    32 TIME STEP    10
   LAY   ROW   COL         APPL.Q          ACT.Q        GW-HEAD       CELL-BOT
     1     3    50  -0.127989E+01  -0.392033E+00   0.411921E-03   0.000000E+00
     1     5    55  -0.127989E+01  -0.300277E+00   0.349176E-03   0.000000E+00
 
 
 SOLVING FOR HEAD 
                                                   Max.-Head-Change                         Max.-Flux-Residual
  Residual-Control   Outer-Iter.   Inner-Iter.     Column Row Layer    Maximum-Head-Change  Column Row Layer    Maximum-Flux-Residual          L2-NORM 
          0                 1           2             1    1     1      -0.1405948542E-01       1    1    1        -0.1130270649E-02      0.1960922056E-01
          0                 2           2             1    1     1       0.1337737637E-02       1    1    1         0.1130263588E-03      0.1904540493E-02
          0                 3           2             1    1     1      -0.1150173357E-03       1    1    1        -0.1017244823E-04      0.1753595357E-03
          0                 4           1             1    1     1       0.8838992839E-05       1    1    1         0.8148123065E-06      0.1465462668E-04
          0                 5           1             1    1     1      -0.5987211934E-06       1    4    1         0.6954654097E-07      0.1075971178E-05

    ------------------------------------------------
       NWT REQUIRED            5 OUTER ITERATIONS 
       AND A TOTAL OF          8 INNER ITERATIONS.
    ------------------------------------------------

 NO OUTPUT CONTROL FOR STRESS PERIOD   32   TIME STEP   11
 
 WELLS WITH REDUCED PUMPING FOR STRESS PERIOD    32 TIME STEP    11
   LAY   ROW   COL         APPL.Q          ACT.Q        GW-HEAD       CELL-BOT
     1     3    50  -0.128004E+01  -0.391901E+00   0.411809E-03   0.000000E+00
     1     5    55  -0.128004E+01  -0.300155E+00   0.349071E-03   0.000000E+00
 
 
 SOLVING FOR HEAD 
                                                   Max.-Head-Change                         Max.-Flux-Residual
  Residual-Control   Outer-Iter.   Inner-Iter.     Column Row Layer    Maximum-Head-Change  Column Row Layer    Maximum-Flux-Residual          L2-NORM 
          0                 1           2             1    1     1      -0.1545758925E-01       1    1    1        -0.1129979640E-02      0.1959851519E-01
          0                 2           2             1    1     1       0.1466996131E-02       1    1    1         0.1129971393E-03      0.1903424256E-02
          0                 3           2             1    1     1      -0.1257715061E-03       1    1    1        -0.1016983081E-04      0.1753852931E-03
          0                 4           1             1    1     1       0.9635796396E-05       1    1    1         0.8146024832E-06      0.1468998718E-04
          0                 5           1             1    1     1      -0.6505420845E-06       1    4    1         0.7127716017E-07      0.1081936063E-05

    ------------------------------------------------
       NWT REQUIRED            5 OUTER ITERATIONS 
       AND A TOTAL OF          8 INNER ITERATIONS.
    ------------------------------------------------

 NO OUTPUT CONTROL FOR STRESS PERIOD   32   TIME STEP   12
 
 WELLS WITH REDUCED PUMPING FOR STRESS PERIOD    32 TIME STEP    12
   LAY   ROW   COL         APPL.Q          ACT.Q        GW-HEAD       CELL-BOT
     1     3    50  -0.128006E+01  -0.391762E+00   0.411718E-03   0.000000E+00
     1     5    55  -0.128006E+01  -0.300027E+00   0.348982E-03   0.000000E+00
 
 
 SOLVING FOR HEAD 
                                                   Max.-Head-Change                         Max.-Flux-Residual
  Residual-Control   Outer-Iter.   Inner-Iter.     Column Row Layer    Maximum-Head-Change  Column Row Layer    Maximum-Flux-Residual          L2-NORM 
          0                 1           2             1    1     1      -0.1699428581E-01       1    1    1        -0.1129659480E-02      0.1958632393E-01
          0                 2           2             1    1     1       0.1608738042E-02       1    1    1         0.1129649886E-03      0.1902336943E-02
          0                 3           2             1    1     1      -0.1375276804E-03       1    1    1        -0.1016695119E-04      0.1754317233E-03
          0                 4           1             1    1     1       0.1050330092E-04       1    7    1         0.8143716381E-06      0.1472804237E-04
          0                 5           1             1    1     1      -0.7066271693E-06       1    4    1         0.7293434123E-07      0.1088106498E-05

    ------------------------------------------------
       NWT REQUIRED            5 OUTER ITERATIONS 
       AND A TOTAL OF          8 INNER ITERATIONS.
    ------------------------------------------------

 NO OUTPUT CONTROL FOR STRESS PERIOD   32   TIME STEP   13
 
 WELLS WITH REDUCED PUMPING FOR STRESS PERIOD    32 TIME STEP    13
   LAY   ROW   COL         APPL.Q          ACT.Q        GW-HEAD       CELL-BOT
     1     3    50  -0.128006E+01  -0.391615E+00   0.411625E-03   0.000000E+00
     1     5    55  -0.128006E+01  -0.299890E+00   0.348890E-03   0.000000E+00
 
 
 SOLVING FOR HEAD 
                                                   Max.-Head-Change                         Max.-Flux-Residual
  Residual-Control   Outer-Iter.   Inner-Iter.     Column Row Layer    Maximum-Head-Change  Column Row Layer    Maximum-Flux-Residual          L2-NORM 
          0                 1           2             1    1     1      -0.1868323730E-01       1    1    1        -0.1129307227E-02      0.1957238375E-01
          0                 2           2             1    1     1       0.1764189290E-02       1    1    1         0.1129296105E-03      0.1901038974E-02
          0                 3           2             1    1     1      -0.1503833213E-03       1    1    1        -0.1016378293E-04      0.1754539807E-03
          0                 4           1             1    1     1       0.1144822378E-04       1    7    1         0.8141176413E-06      0.1476361333E-04
          0                 5           1             1    1     1      -0.7673382356E-06       1    4    1         0.7451479433E-07      0.1094038628E-05

    ------------------------------------------------
       NWT REQUIRED            5 OUTER ITERATIONS 
       AND A TOTAL OF          8 INNER ITERATIONS.
    ------------------------------------------------

 NO OUTPUT CONTROL FOR STRESS PERIOD   32   TIME STEP   14
 
 WELLS WITH REDUCED PUMPING FOR STRESS PERIOD    32 TIME STEP    14
   LAY   ROW   COL         APPL.Q          ACT.Q        GW-HEAD       CELL-BOT
     1     3    50  -0.128003E+01  -0.391455E+00   0.411532E-03   0.000000E+00
     1     5    55  -0.128003E+01  -0.299743E+00   0.348797E-03   0.000000E+00
 
 
 SOLVING FOR HEAD 
                                                   Max.-Head-Change                         Max.-Flux-Residual
  Residual-Control   Outer-Iter.   Inner-Iter.     Column Row Layer    Maximum-Head-Change  Column Row Layer    Maximum-Flux-Residual          L2-NORM 
          0                 1           2             1    1     1      -0.2053943285E-01       1    1    1        -0.1128919632E-02      0.1955693102E-01
          0                 2           2             1    1     1       0.1934697151E-02       1    1    1         0.1128906783E-03      0.1899567043E-02
          0                 3           2             1    1     1      -0.1644458118E-03       1    1    1        -0.1016029678E-04      0.1754554301E-03
          0                 4           1             1    1     1       0.1247797995E-04       1    7    1         0.8138381604E-06      0.1479687780E-04
          0                 5           1             1    1     1      -0.8330628892E-06       2    4    1         0.7602395513E-07      0.1099698822E-05

    ------------------------------------------------
       NWT REQUIRED            5 OUTER ITERATIONS 
       AND A TOTAL OF          8 INNER ITERATIONS.
    ------------------------------------------------

 NO OUTPUT CONTROL FOR STRESS PERIOD   32   TIME STEP   15
 
 WELLS WITH REDUCED PUMPING FOR STRESS PERIOD    32 TIME STEP    15
   LAY   ROW   COL         APPL.Q          ACT.Q        GW-HEAD       CELL-BOT
     1     3    50  -0.128003E+01  -0.391282E+00   0.411424E-03   0.000000E+00
     1     5    55  -0.128003E+01  -0.299584E+00   0.348690E-03   0.000000E+00
 
 
 SOLVING FOR HEAD 
                                                   Max.-Head-Change                         Max.-Flux-Residual
  Residual-Control   Outer-Iter.   Inner-Iter.     Column Row Layer    Maximum-Head-Change  Column Row Layer    Maximum-Flux-Residual          L2-NORM 
          0                 1           2             1    1     1      -0.2257931302E-01       1    1    1        -0.1128493112E-02      0.1954074341E-01
          0                 2           2             1    1     1       0.2121741592E-02       1    1    1         0.1128478317E-03      0.1897922480E-02
          0                 3           2             1    1     1      -0.1798333864E-03       1    1    1        -0.1015646049E-04      0.1754230218E-03
          0                 4           1             1    1     1       0.1360074233E-04      30    4    1        -0.8251222319E-06      0.1482621934E-04
          0                 5           1             1    1     1      -0.9042093096E-06       2    4    1         0.7745985187E-07      0.1104927155E-05

    ------------------------------------------------
       NWT REQUIRED            5 OUTER ITERATIONS 
       AND A TOTAL OF          8 INNER ITERATIONS.
    ------------------------------------------------

 NO OUTPUT CONTROL FOR STRESS PERIOD   32   TIME STEP   16
 
 WELLS WITH REDUCED PUMPING FOR STRESS PERIOD    32 TIME STEP    16
   LAY   ROW   COL         APPL.Q          ACT.Q        GW-HEAD       CELL-BOT
     1     3    50  -0.128003E+01  -0.391093E+00   0.411305E-03   0.000000E+00
     1     5    55  -0.128003E+01  -0.299410E+00   0.348574E-03   0.000000E+00
 
 
 SOLVING FOR HEAD 
                                                   Max.-Head-Change                         Max.-Flux-Residual
  Residual-Control   Outer-Iter.   Inner-Iter.     Column Row Layer    Maximum-Head-Change  Column Row Layer    Maximum-Flux-Residual          L2-NORM 
          0                 1           2             1    1     1      -0.2482090538E-01       1    1    1        -0.1128023713E-02      0.1952292080E-01
          0                 2           2             1    1     1       0.2326947559E-02       1    1    1         0.1128006729E-03      0.1896182605E-02
          0                 3           2             1    1     1      -0.1966761319E-03       1    1    1        -0.1015223850E-04      0.1753878259E-03
          0                 4           1             1    1     1       0.1482550308E-04      30    4    1        -0.8395253079E-06      0.1485482533E-04
          0                 5           1             1    1     1      -0.9811985323E-06      30    4    1         0.7886907838E-07      0.1109857236E-05

    ------------------------------------------------
       NWT REQUIRED            5 OUTER ITERATIONS 
       AND A TOTAL OF          8 INNER ITERATIONS.
    ------------------------------------------------

 NO OUTPUT CONTROL FOR STRESS PERIOD   32   TIME STEP   17
 
 WELLS WITH REDUCED PUMPING FOR STRESS PERIOD    32 TIME STEP    17
   LAY   ROW   COL         APPL.Q          ACT.Q        GW-HEAD       CELL-BOT
     1     3    50  -0.128006E+01  -0.390887E+00   0.411170E-03   0.000000E+00
     1     5    55  -0.128006E+01  -0.299220E+00   0.348442E-03   0.000000E+00
 
 
 SOLVING FOR HEAD 
                                                   Max.-Head-Change                         Max.-Flux-Residual
  Residual-Control   Outer-Iter.   Inner-Iter.     Column Row Layer    Maximum-Head-Change  Column Row Layer    Maximum-Flux-Residual          L2-NORM 
          0                 1           2             1    1     1      -0.2728396655E-01       1    1    1        -0.1127507068E-02      0.1950281172E-01
          0                 2           2             1    1     1       0.2552097775E-02       1    1    1         0.1127487626E-03      0.1894301535E-02
          0                 3           2             1    1     1      -0.2151170195E-03       1    1    1        -0.1014759147E-04      0.1753290786E-03
          0                 4           1             1    1     1       0.1616213087E-04      30    4    1        -0.8530812057E-06      0.1487989089E-04
          0                 5           1             1    1     1      -0.1064450643E-05      30    4    1         0.8063346613E-07      0.1114193662E-05
          0                 6           1             1    1     1       0.6062080764E-07       2    4    1        -0.6195094215E-08      0.7166734910E-07

    ------------------------------------------------
       NWT REQUIRED            6 OUTER ITERATIONS 
       AND A TOTAL OF          9 INNER ITERATIONS.
    ------------------------------------------------

 NO OUTPUT CONTROL FOR STRESS PERIOD   32   TIME STEP   18
 
 WELLS WITH REDUCED PUMPING FOR STRESS PERIOD    32 TIME STEP    18
   LAY   ROW   COL         APPL.Q          ACT.Q        GW-HEAD       CELL-BOT
     1     3    50  -0.128004E+01  -0.390660E+00   0.411030E-03   0.000000E+00
     1     5    55  -0.128004E+01  -0.299012E+00   0.348304E-03   0.000000E+00
 
 
 SOLVING FOR HEAD 
                                                   Max.-Head-Change                         Max.-Flux-Residual
  Residual-Control   Outer-Iter.   Inner-Iter.     Column Row Layer    Maximum-Head-Change  Column Row Layer    Maximum-Flux-Residual          L2-NORM 
          0                 1           2             1    1     1      -0.2999015028E-01       1    7    1        -0.1126939260E-02      0.1948082329E-01
          0                 2           2             1    1     1       0.2799148004E-02       1    7    1         0.1126917061E-03      0.1892149866E-02
          0                 3           2             1    1     1      -0.2353131485E-03       1    7    1        -0.1014248416E-04      0.1752363764E-03
          0                 4           1             1    1     1       0.1762143869E-04      30    4    1        -0.8657951795E-06      0.1490144980E-04
          0                 5           1             1    1     1      -0.1154365503E-05      30    4    1         0.8230562365E-07      0.1117898367E-05
          0                 6           1             1    1     1       0.6535639635E-07       2    4    1        -0.6308457756E-08      0.7207760282E-07

    ------------------------------------------------
       NWT REQUIRED            6 OUTER ITERATIONS 
       AND A TOTAL OF          9 INNER ITERATIONS.
    ------------------------------------------------

 NO OUTPUT CONTROL FOR STRESS PERIOD   32   TIME STEP   19
 
 WELLS WITH REDUCED PUMPING FOR STRESS PERIOD    32 TIME STEP    19
   LAY   ROW   COL         APPL.Q          ACT.Q        GW-HEAD       CELL-BOT
     1     3    50  -0.127997E+01  -0.390413E+00   0.410888E-03   0.000000E+00
     1     5    55  -0.127997E+01  -0.298785E+00   0.348163E-03   0.000000E+00
 
 
 SOLVING FOR HEAD 
                                                   Max.-Head-Change                         Max.-Flux-Residual
  Residual-Control   Outer-Iter.   Inner-Iter.     Column Row Layer    Maximum-Head-Change  Column Row Layer    Maximum-Flux-Residual          L2-NORM 
          0                 1           2             1    1     1      -0.3296314663E-01       1    7    1        -0.1126313515E-02      0.1945804668E-01
          0                 2           2             1    1     1       0.3070238580E-02       1    7    1         0.1126288230E-03      0.1889998165E-02
          0                 3           2             1    1     1      -0.2574365788E-03       1    7    1        -0.1013685557E-04      0.1751270382E-03
          0                 4           1             1    1     1       0.1921520313E-04      30    4    1        -0.8779698994E-06      0.1492080385E-04
          0                 5           1             1    1     1      -0.1251290579E-05      30    4    1         0.8380574812E-07      0.1120967727E-05
          0                 6           1             1    1     1       0.7038162858E-07       2    4    1        -0.6413113596E-08      0.7241793063E-07

    ------------------------------------------------
       NWT REQUIRED            6 OUTER ITERATIONS 
       AND A TOTAL OF          9 INNER ITERATIONS.
    ------------------------------------------------

 NO OUTPUT CONTROL FOR STRESS PERIOD   32   TIME STEP   20
 
 WELLS WITH REDUCED PUMPING FOR STRESS PERIOD    32 TIME STEP    20
   LAY   ROW   COL         APPL.Q          ACT.Q        GW-HEAD       CELL-BOT
     1     3    50  -0.127996E+01  -0.390141E+00   0.410720E-03   0.000000E+00
     1     5    55  -0.127996E+01  -0.298536E+00   0.347997E-03   0.000000E+00
 
 
 SOLVING FOR HEAD 
                                                   Max.-Head-Change                         Max.-Flux-Residual
  Residual-Control   Outer-Iter.   Inner-Iter.     Column Row Layer    Maximum-Head-Change  Column Row Layer    Maximum-Flux-Residual          L2-NORM 
          0                 1           2             1    1     1      -0.3622890419E-01       1    7    1        -0.1125624240E-02      0.1942354184E-01
          0                 2           2             1    1     1       0.3367715060E-02       1    7    1         0.1125595504E-03      0.1887544866E-02
          0                 3           2             1    1     1      -0.2816760582E-03       1    7    1        -0.1013065536E-04      0.1750599038E-03
          0                 4           1             1    1     1       0.2095625009E-04      29    4    1        -0.9147518156E-06      0.1494242969E-04
          0                 5           1             1    1     1      -0.1355481117E-05      29    4    1         0.8706141941E-07      0.1123353041E-05
          0                 6           1             1    1     1       0.7567932854E-07       2    4    1        -0.6508578565E-08      0.7266060043E-07

    ------------------------------------------------
       NWT REQUIRED            6 OUTER ITERATIONS 
       AND A TOTAL OF          9 INNER ITERATIONS.
    ------------------------------------------------

 NO OUTPUT CONTROL FOR STRESS PERIOD   32   TIME STEP   21
 
 WELLS WITH REDUCED PUMPING FOR STRESS PERIOD    32 TIME STEP    21
   LAY   ROW   COL         APPL.Q          ACT.Q        GW-HEAD       CELL-BOT
     1     3    50  -0.128000E+01  -0.389843E+00   0.410525E-03   0.000000E+00
     1     5    55  -0.128000E+01  -0.298263E+00   0.347808E-03   0.000000E+00
 
 
 SOLVING FOR HEAD 
                                                   Max.-Head-Change                         Max.-Flux-Residual
  Residual-Control   Outer-Iter.   Inner-Iter.     Column Row Layer    Maximum-Head-Change  Column Row Layer    Maximum-Flux-Residual          L2-NORM 
          0                 1           2             1    1     1      -0.3948163257E-01       1    7    1        -0.1124865101E-02      0.1932054602E-01
          0                 2           2             1    1     1       0.3660447044E-02       1    7    1         0.1124789260E-03      0.1883216146E-02
          0                 3           2             1    1     1      -0.3052597657E-03       1    7    1        -0.1012347368E-04      0.1752332279E-03
          0                 4           1             1    1     1       0.2263041975E-04      29    4    1        -0.9249638797E-06      0.1500878495E-04
          0                 5           1             1    1     1      -0.1452459518E-05       7    4    1         0.8883552027E-07      0.1129320629E-05
          0                 6           1             1    1     1       0.8045370466E-07       4    4    1        -0.6821863963E-08      0.7310477377E-07

    ------------------------------------------------
       NWT REQUIRED            6 OUTER ITERATIONS 
       AND A TOTAL OF          9 INNER ITERATIONS.
    ------------------------------------------------

 NO OUTPUT CONTROL FOR STRESS PERIOD   32   TIME STEP   22
 
 WELLS WITH REDUCED PUMPING FOR STRESS PERIOD    32 TIME STEP    22
   LAY   ROW   COL         APPL.Q          ACT.Q        GW-HEAD       CELL-BOT
     1     3    50  -0.127999E+01  -0.389517E+00   0.410322E-03   0.000000E+00
     1     5    55  -0.127999E+01  -0.297964E+00   0.347608E-03   0.000000E+00
 
 
 SOLVING FOR HEAD 
                                                   Max.-Head-Change                         Max.-Flux-Residual
  Residual-Control   Outer-Iter.   Inner-Iter.     Column Row Layer    Maximum-Head-Change  Column Row Layer    Maximum-Flux-Residual          L2-NORM 
          0                 1           2             1    1     1      -0.4287076098E-01       1    7    1        -0.1114667133E-02      0.1914950679E-01
          0                 2           2             1    1     1       0.3967669220E-02       1    1    1         0.1114564467E-03      0.1870073423E-02
          0                 3           2             1    1     1      -0.3301334785E-03       1    7    1        -0.1003150413E-04      0.1743738585E-03
          0                 4           1             1    1     1       0.2439686131E-04      29    4    1        -0.9343585994E-06      0.1497244338E-04
          0                 5           1             1    1     1      -0.1551690894E-05      29    4    1         0.8909703908E-07      0.1126051578E-05
          0                 6           1             1    1     1       0.8512887939E-07       2    4    1        -0.6824983245E-08      0.7288462217E-07

    ------------------------------------------------
       NWT REQUIRED            6 OUTER ITERATIONS 
       AND A TOTAL OF          9 INNER ITERATIONS.
    ------------------------------------------------

 NO OUTPUT CONTROL FOR STRESS PERIOD   32   TIME STEP   23
 
 WELLS WITH REDUCED PUMPING FOR STRESS PERIOD    32 TIME STEP    23
   LAY   ROW   COL         APPL.Q          ACT.Q        GW-HEAD       CELL-BOT
     1     3    50  -0.128002E+01  -0.389158E+00   0.410091E-03   0.000000E+00
     1     5    55  -0.128002E+01  -0.297636E+00   0.347383E-03   0.000000E+00
 
 
 SOLVING FOR HEAD 
                                                   Max.-Head-Change                         Max.-Flux-Residual
  Residual-Control   Outer-Iter.   Inner-Iter.     Column Row Layer    Maximum-Head-Change  Column Row Layer    Maximum-Flux-Residual          L2-NORM 
          0                 1           2             1    1     1      -0.4697048420E-01       1    7    1        -0.1100482174E-02      0.1899729576E-01
          0                 2           2             1    1     1       0.4336506619E-02       1    1    1         0.1100424127E-03      0.1851339193E-02
          0                 3           2             1    1     1      -0.3597334769E-03       1    7    1        -0.9904243439E-05      0.1725231193E-03
          0                 4           1             1    1     1       0.2647439958E-04      29    4    1        -0.1001797784E-05      0.1483307574E-04
          0                 5           1             1    1     1      -0.1663723471E-05      29    4    1         0.9320288186E-07      0.1113733899E-05
          0                 6           1             1    1     1       0.9011589176E-07      30    4    1        -0.6814504516E-08      0.7204176164E-07

    ------------------------------------------------
       NWT REQUIRED            6 OUTER ITERATIONS 
       AND A TOTAL OF          9 INNER ITERATIONS.
    ------------------------------------------------

 NO OUTPUT CONTROL FOR STRESS PERIOD   32   TIME STEP   24
 
 WELLS WITH REDUCED PUMPING FOR STRESS PERIOD    32 TIME STEP    24
   LAY   ROW   COL         APPL.Q          ACT.Q        GW-HEAD       CELL-BOT
     1     3    50  -0.127999E+01  -0.388765E+00   0.409849E-03   0.000000E+00
     1     5    55  -0.127999E+01  -0.297276E+00   0.347146E-03   0.000000E+00
 
 
 SOLVING FOR HEAD 
                                                   Max.-Head-Change                         Max.-Flux-Residual
  Residual-Control   Outer-Iter.   Inner-Iter.     Column Row Layer    Maximum-Head-Change  Column Row Layer    Maximum-Flux-Residual          L2-NORM 
          0                 1           3             1    1     1      -0.5158526952E-01       1    7    1        -0.1096335607E-02      0.1888150128E-01
          0                 2           2             1    1     1       0.4754534111E-02       1    7    1         0.1096286763E-03      0.1839230295E-02
          0                 3           2             1    1     1      -0.3935280159E-03       1    7    1        -0.9867044247E-05      0.1714153739E-03
          0                 4           1             1    1     1       0.2886369073E-04      30    4    1        -0.9772033973E-06      0.1475743331E-04
          0                 5           1             1    1     1      -0.1791139442E-05      30    4    1         0.9312859284E-07      0.1105003417E-05
          0                 6           1             1    1     1       0.9574188824E-07      30    4    1        -0.6892634019E-08      0.7136579828E-07

    ------------------------------------------------
       NWT REQUIRED            6 OUTER ITERATIONS 
       AND A TOTAL OF         10 INNER ITERATIONS.
    ------------------------------------------------

 NO OUTPUT CONTROL FOR STRESS PERIOD   32   TIME STEP   25
 
 WELLS WITH REDUCED PUMPING FOR STRESS PERIOD    32 TIME STEP    25
   LAY   ROW   COL         APPL.Q          ACT.Q        GW-HEAD       CELL-BOT
     1     3    50  -0.128001E+01  -0.388333E+00   0.409574E-03   0.000000E+00
     1     5    55  -0.128001E+01  -0.296882E+00   0.346878E-03   0.000000E+00
 
 
 SOLVING FOR HEAD 
                                                   Max.-Head-Change                         Max.-Flux-Residual
  Residual-Control   Outer-Iter.   Inner-Iter.     Column Row Layer    Maximum-Head-Change  Column Row Layer    Maximum-Flux-Residual          L2-NORM 
          0                 1           3             1    1     1      -0.5667184100E-01       1    7    1        -0.1094744463E-02      0.1877801763E-01
          0                 2           2             1    1     1       0.5215302543E-02       1    7    1         0.1094692544E-03      0.1828278034E-02
          0                 3           2             1    1     1      -0.4307775543E-03       1    7    1        -0.9852749032E-05      0.1704035310E-03
          0                 4           1             1    1     1       0.3148876723E-04      30    4    1        -0.9313867668E-06      0.1468823691E-04
          0                 5           1             1    1     1      -0.1922823707E-05      30    4    1         0.9078615548E-07      0.1095217876E-05
          0                 6           1             1    1     1       0.1011021678E-06       9    4    1        -0.6799044883E-08      0.7055526366E-07

    ------------------------------------------------
       NWT REQUIRED            6 OUTER ITERATIONS 
       AND A TOTAL OF         10 INNER ITERATIONS.
    ------------------------------------------------

 NO OUTPUT CONTROL FOR STRESS PERIOD   32   TIME STEP   26
 
 WELLS WITH REDUCED PUMPING FOR STRESS PERIOD    32 TIME STEP    26
   LAY   ROW   COL         APPL.Q          ACT.Q        GW-HEAD       CELL-BOT
     1     3    50  -0.128001E+01  -0.387859E+00   0.409277E-03   0.000000E+00
     1     5    55  -0.128001E+01  -0.296451E+00   0.346588E-03   0.000000E+00
 
 
 SOLVING FOR HEAD 
                                                   Max.-Head-Change                         Max.-Flux-Residual
  Residual-Control   Outer-Iter.   Inner-Iter.     Column Row Layer    Maximum-Head-Change  Column Row Layer    Maximum-Flux-Residual          L2-NORM 
          0                 1           3             1    1     1      -0.6225658818E-01       1    7    1        -0.1093497026E-02      0.1868378144E-01
          0                 2           2             1    1     1       0.5721019568E-02       1    7    1         0.1093438997E-03      0.1818245623E-02
          0                 3           2             1    1     1      -0.4716283696E-03       1    7    1        -0.9841527636E-05      0.1694811173E-03
          0                 4           1             1    1     1       0.3435521145E-04      30    4    1        -0.9347980061E-06      0.1462634489E-04
          0                 5           1             1    1     1      -0.2056752565E-05      30    4    1         0.9152186387E-07      0.1084153697E-05
          0                 6           1             1    1     1       0.1060166685E-06      30    4    1        -0.6863405844E-08      0.6959124944E-07

    ------------------------------------------------
       NWT REQUIRED            6 OUTER ITERATIONS 
       AND A TOTAL OF         10 INNER ITERATIONS.
    ------------------------------------------------

 NO OUTPUT CONTROL FOR STRESS PERIOD   32   TIME STEP   27
 
 WELLS WITH REDUCED PUMPING FOR STRESS PERIOD    32 TIME STEP    27
   LAY   ROW   COL         APPL.Q          ACT.Q        GW-HEAD       CELL-BOT
     1     3    50  -0.128000E+01  -0.387339E+00   0.408951E-03   0.000000E+00
     1     5    55  -0.128000E+01  -0.295978E+00   0.346271E-03   0.000000E+00
 
 
 SOLVING FOR HEAD 
                                                   Max.-Head-Change                         Max.-Flux-Residual
  Residual-Control   Outer-Iter.   Inner-Iter.     Column Row Layer    Maximum-Head-Change  Column Row Layer    Maximum-Flux-Residual          L2-NORM 
          0                 1           3             1    1     1      -0.6838106494E-01       1    7    1        -0.1092181549E-02      0.1859531681E-01
          0                 2           2             1    1     1       0.6273027800E-02       1    7    1         0.1092115968E-03      0.1808994853E-02
          0                 3           2             1    1     1      -0.5162141287E-03       1    7    1        -0.9829690179E-05      0.1686832924E-03
          0                 4           1             1    1     1       0.3747033040E-04      30    4    1        -0.9367587968E-06      0.1457556107E-04
          0                 5           1             1    1     1      -0.2189377667E-05       7    4    1         0.9322110728E-07      0.1072025434E-05
          0                 6           1             1    1     1       0.1102064405E-06       7    4    1        -0.6973930766E-08      0.6850399455E-07

    ------------------------------------------------
       NWT REQUIRED            6 OUTER ITERATIONS 
       AND A TOTAL OF         10 INNER ITERATIONS.
    ------------------------------------------------

 NO OUTPUT CONTROL FOR STRESS PERIOD   32   TIME STEP   28
 
 WELLS WITH REDUCED PUMPING FOR STRESS PERIOD    32 TIME STEP    28
   LAY   ROW   COL         APPL.Q          ACT.Q        GW-HEAD       CELL-BOT
     1     3    50  -0.127998E+01  -0.386770E+00   0.408597E-03   0.000000E+00
     1     5    55  -0.127998E+01  -0.295461E+00   0.345926E-03   0.000000E+00
 
 
 SOLVING FOR HEAD 
                                                   Max.-Head-Change                         Max.-Flux-Residual
  Residual-Control   Outer-Iter.   Inner-Iter.     Column Row Layer    Maximum-Head-Change  Column Row Layer    Maximum-Flux-Residual          L2-NORM 
          0                 1           3             1    1     1      -0.7474565634E-01       1    7    1        -0.1090727937E-02      0.1849196984E-01
          0                 2           2             1    1     1       0.6763399915E-02       1    7    1         0.1090609384E-03      0.1800593784E-02
          0                 3           2             1    1     1      -0.5485479109E-03       1    7    1        -0.9816325401E-05      0.1686907909E-03
          0                 4           1            15    7     1       0.3950142833E-04       6    4    1        -0.1065196610E-05      0.1466824046E-04
          0                 5           1             1    1     1      -0.2193741261E-05       9    4    1         0.1078901342E-06      0.1073884311E-05
          0                 6           1             1    1     1       0.1068301586E-06       4    4    1        -0.7837247296E-08      0.6848054525E-07

    ------------------------------------------------
       NWT REQUIRED            6 OUTER ITERATIONS 
       AND A TOTAL OF         10 INNER ITERATIONS.
    ------------------------------------------------

 NO OUTPUT CONTROL FOR STRESS PERIOD   32   TIME STEP   29
 
 WELLS WITH REDUCED PUMPING FOR STRESS PERIOD    32 TIME STEP    29
   LAY   ROW   COL         APPL.Q          ACT.Q        GW-HEAD       CELL-BOT
     1     3    50  -0.128001E+01  -0.386148E+00   0.408199E-03   0.000000E+00
     1     5    55  -0.128001E+01  -0.294897E+00   0.345541E-03   0.000000E+00
 
 
 SOLVING FOR HEAD 
                                                   Max.-Head-Change                         Max.-Flux-Residual
  Residual-Control   Outer-Iter.   Inner-Iter.     Column Row Layer    Maximum-Head-Change  Column Row Layer    Maximum-Flux-Residual          L2-NORM 
          0                 1           3             1    1     1      -0.8157353709E-01       1    7    1        -0.1085119026E-02      0.1838946419E-01
          0                 2           2             1    1     1       0.7370612649E-02       1    7    1         0.1084962698E-03      0.1789523590E-02
          0                 3           2             2    1     1      -0.5965523827E-03       1    7    1        -0.9765610947E-05      0.1677829616E-03
          0                 4           1            17    7     1       0.4247148059E-04       1    4    1        -0.1068161914E-05      0.1462033727E-04
          0                 5           1             1    1     1      -0.2281297130E-05       9    4    1         0.1074871641E-06      0.1059346510E-05
          0                 6           1             1    1     1       0.1074566865E-06       2    4    1        -0.7766374210E-08      0.6726715385E-07

    ------------------------------------------------
       NWT REQUIRED            6 OUTER ITERATIONS 
       AND A TOTAL OF         10 INNER ITERATIONS.
    ------------------------------------------------

 NO OUTPUT CONTROL FOR STRESS PERIOD   32   TIME STEP   30
 
 WELLS WITH REDUCED PUMPING FOR STRESS PERIOD    32 TIME STEP    30
   LAY   ROW   COL         APPL.Q          ACT.Q        GW-HEAD       CELL-BOT
     1     3    50  -0.127999E+01  -0.385495E+00   0.407792E-03   0.000000E+00
     1     5    55  -0.127999E+01  -0.294302E+00   0.345143E-03   0.000000E+00
 



 STREAM LISTING     PERIOD     32   STEP       30

 LAYER ROW COL. STREAM  RCH.   FLOW INTO    STREAM     FLOW OUT OF   OVRLND.    DIRECT     STREAM      STREAM      STREAM     STREAM  STREAMBED   FLOW TO   CHNG. UNSAT. 
                SEG.NO.  NO.   STRM. RCH.    LOSS       STRM. RCH.   RUNOFF     PRECIP       ET         HEAD        DEPTH      WIDTH  CONDCTNC.   WAT. TAB.

   1    4    1     1     1    6.2700E+00  2.0425E-03   6.2680E+00  0.000E+00  0.000E+00  0.000E+00  1.41746E+02  1.896E+00  4.081E+00  8.524E-04  2.037E-03  5.827E-06
   1    4    2     1     2    6.2680E+00  2.0420E-03   6.2659E+00  0.000E+00  0.000E+00  0.000E+00  1.41446E+02  1.896E+00  4.081E+00  8.523E-04  2.036E-03  5.751E-06
   1    4    3     1     3    6.2659E+00  2.0415E-03   6.2639E+00  0.000E+00  0.000E+00  0.000E+00  1.41146E+02  1.896E+00  4.080E+00  8.522E-04  2.036E-03  5.653E-06
   1    4    4     1     4    6.2639E+00  2.0409E-03   6.2618E+00  0.000E+00  0.000E+00  0.000E+00  1.40845E+02  1.895E+00  4.080E+00  8.521E-04  2.035E-03  5.520E-06
   1    4    5     1     5    6.2618E+00  2.0404E-03   6.2598E+00  0.000E+00  0.000E+00  0.000E+00  1.40545E+02  1.895E+00  4.080E+00  8.520E-04  2.035E-03  5.353E-06
   1    4    6     1     6    6.2598E+00  2.0399E-03   6.2578E+00  0.000E+00  0.000E+00  0.000E+00  1.40245E+02  1.895E+00  4.079E+00  8.519E-04  2.035E-03  5.151E-06
   1    4    7     1     7    6.2578E+00  2.0394E-03   6.2557E+00  0.000E+00  0.000E+00  0.000E+00  1.39944E+02  1.894E+00  4.079E+00  8.518E-04  2.034E-03  4.913E-06
   1    4    8     1     8    6.2557E+00  2.0389E-03   6.2537E+00  0.000E+00  0.000E+00  0.000E+00  1.39644E+02  1.894E+00  4.078E+00  8.517E-04  2.034E-03  4.642E-06
   1    4    9     1     9    6.2537E+00  2.0384E-03   6.2516E+00  0.000E+00  0.000E+00  0.000E+00  1.39344E+02  1.894E+00  4.078E+00  8.516E-04  2.034E-03  4.338E-06
   1    4   10     1    10    6.2516E+00  2.0378E-03   6.2496E+00  0.000E+00  0.000E+00  0.000E+00  1.39043E+02  1.893E+00  4.078E+00  8.515E-04  2.034E-03  4.001E-06
   1    4   11     1    11    6.2496E+00  2.0373E-03   6.2476E+00  0.000E+00  0.000E+00  0.000E+00  1.38743E+02  1.893E+00  4.077E+00  8.514E-04  2.034E-03  3.633E-06
   1    4   12     1    12    6.2476E+00  2.0368E-03   6.2455E+00  0.000E+00  0.000E+00  0.000E+00  1.38443E+02  1.893E+00  4.077E+00  8.513E-04  2.034E-03  3.245E-06
   1    4   13     1    13    6.2455E+00  2.0363E-03   6.2435E+00  0.000E+00  0.000E+00  0.000E+00  1.38142E+02  1.892E+00  4.077E+00  8.512E-04  2.032E-03  4.565E-06
   1    4   14     1    14    6.2435E+00  2.0358E-03   6.2415E+00  0.000E+00  0.000E+00  0.000E+00  1.37842E+02  1.892E+00  4.076E+00  8.511E-04  2.009E-03  2.631E-05
   1    4   15     1    15    6.2415E+00  2.0352E-03   6.2394E+00  0.000E+00  0.000E+00  0.000E+00  1.37542E+02  1.892E+00  4.076E+00  8.509E-04  1.983E-03  5.189E-05
   1    4   16     1    16    6.2394E+00  2.0347E-03   6.2374E+00  0.000E+00  0.000E+00  0.000E+00  1.37241E+02  1.891E+00  4.075E+00  8.508E-04  1.963E-03  7.170E-05
   1    4   17     1    17    6.2374E+00  2.0342E-03   6.2353E+00  0.000E+00  0.000E+00  0.000E+00  1.36941E+02  1.891E+00  4.075E+00  8.507E-04  1.963E-03  7.121E-05
   1    4   18     1    18    6.2353E+00  2.0337E-03   6.2333E+00  0.000E+00  0.000E+00  0.000E+00  1.36641E+02  1.891E+00  4.075E+00  8.506E-04  1.963E-03  7.065E-05
   1    4   19     1    19    6.2333E+00  2.0332E-03   6.2313E+00  0.000E+00  0.000E+00  0.000E+00  1.36340E+02  1.890E+00  4.074E+00  8.505E-04  1.963E-03  7.006E-05
   1    4   20     1    20    6.2313E+00  2.0326E-03   6.2292E+00  0.000E+00  0.000E+00  0.000E+00  1.36040E+02  1.890E+00  4.074E+00  8.504E-04  1.963E-03  6.942E-05
   1    4   21     1    21    6.2292E+00  2.0321E-03   6.2272E+00  0.000E+00  0.000E+00  0.000E+00  1.35740E+02  1.890E+00  4.074E+00  8.503E-04  1.963E-03  6.875E-05
   1    4   22     1    22    6.2272E+00  2.0316E-03   6.2252E+00  0.000E+00  0.000E+00  0.000E+00  1.35440E+02  1.890E+00  4.073E+00  8.502E-04  1.964E-03  6.804E-05
   1    4   23     1    23    6.2252E+00  2.0311E-03   6.2232E+00  0.000E+00  0.000E+00  0.000E+00  1.35139E+02  1.889E+00  4.073E+00  8.501E-04  1.964E-03  6.729E-05
   1    4   24     1    24    6.2232E+00  2.0306E-03   6.2211E+00  0.000E+00  0.000E+00  0.000E+00  1.34839E+02  1.889E+00  4.072E+00  8.500E-04  1.964E-03  6.649E-05
   1    4   25     1    25    6.2211E+00  2.0301E-03   6.2191E+00  0.000E+00  0.000E+00  0.000E+00  1.34539E+02  1.889E+00  4.072E+00  8.499E-04  1.964E-03  6.566E-05
   1    4   26     1    26    6.2191E+00  2.0295E-03   6.2171E+00  0.000E+00  0.000E+00  0.000E+00  1.34238E+02  1.888E+00  4.072E+00  8.498E-04  1.965E-03  6.478E-05
   1    4   27     1    27    6.2171E+00  2.0290E-03   6.2150E+00  0.000E+00  0.000E+00  0.000E+00  1.33938E+02  1.888E+00  4.071E+00  8.497E-04  1.965E-03  6.385E-05
   1    4   28     1    28    6.2150E+00  2.0285E-03   6.2130E+00  0.000E+00  0.000E+00  0.000E+00  1.33638E+02  1.888E+00  4.071E+00  8.496E-04  1.966E-03  6.288E-05
   1    4   29     1    29    6.2130E+00  2.0280E-03   6.2110E+00  0.000E+00  0.000E+00  0.000E+00  1.33337E+02  1.887E+00  4.070E+00  8.495E-04  1.967E-03  6.070E-05
   1    4   30     1    30    6.2110E+00  2.0275E-03   6.2090E+00  0.000E+00  0.000E+00  0.000E+00  1.33037E+02  1.887E+00  4.070E+00  8.494E-04  1.968E-03  5.949E-05
   1    4   31     1    31    6.2090E+00  2.0270E-03   6.2069E+00  0.000E+00  0.000E+00  0.000E+00  1.32737E+02  1.887E+00  4.070E+00  8.493E-04  1.987E-03  3.964E-05
   1    4   32     1    32    6.2069E+00  2.0264E-03   6.2049E+00  0.000E+00  0.000E+00  0.000E+00  1.32436E+02  1.886E+00  4.069E+00  8.492E-04  1.988E-03  3.816E-05
   1    4   33     1    33    6.2049E+00  2.0259E-03   6.2029E+00  0.000E+00  0.000E+00  0.000E+00  1.32136E+02  1.886E+00  4.069E+00  8.491E-04  1.989E-03  3.661E-05
   1    4   34     1    34    6.2029E+00  2.0254E-03   6.2008E+00  0.000E+00  0.000E+00  0.000E+00  1.31836E+02  1.886E+00  4.069E+00  8.490E-04  1.990E-03  3.497E-05
   1    4   35     1    35    6.2008E+00  2.0249E-03   6.1988E+00  0.000E+00  0.000E+00  0.000E+00  1.31535E+02  1.885E+00  4.068E+00  8.489E-04  1.992E-03  3.323E-05
   1    4   36     1    36    6.1988E+00  2.0244E-03   6.1968E+00  0.000E+00  0.000E+00  0.000E+00  1.31235E+02  1.885E+00  4.068E+00  8.488E-04  1.993E-03  3.140E-05
   1    4   37     1    37    6.1968E+00  2.0239E-03   6.1948E+00  0.000E+00  0.000E+00  0.000E+00  1.30935E+02  1.885E+00  4.067E+00  8.487E-04  1.994E-03  2.946E-05
   1    4   38     1    38    6.1948E+00  2.0233E-03   6.1927E+00  0.000E+00  0.000E+00  0.000E+00  1.30634E+02  1.884E+00  4.067E+00  8.486E-04  1.996E-03  2.740E-05
   1    4   39     1    39    6.1927E+00  2.0228E-03   6.1907E+00  0.000E+00  0.000E+00  0.000E+00  1.30334E+02  1.884E+00  4.067E+00  8.485E-04  2.028E-03 -4.755E-06
   1    4   40     1    40    6.1907E+00  2.0223E-03   6.1887E+00  0.000E+00  0.000E+00  0.000E+00  1.30034E+02  1.884E+00  4.066E+00  8.484E-04  2.029E-03 -7.135E-06
   1    4   41     1    41    6.1887E+00  2.0218E-03   6.1867E+00  0.000E+00  0.000E+00  0.000E+00  1.29733E+02  1.883E+00  4.066E+00  8.483E-04  2.031E-03 -9.682E-06
   1    4   42     1    42    6.1867E+00  2.0213E-03   6.1847E+00  0.000E+00  0.000E+00  0.000E+00  1.29433E+02  1.883E+00  4.066E+00  8.482E-04  2.034E-03 -1.240E-05
   1    4   43     1    43    6.1847E+00  2.0208E-03   6.1826E+00  0.000E+00  0.000E+00  0.000E+00  1.29133E+02  1.883E+00  4.065E+00  8.481E-04  2.036E-03 -1.534E-05
   1    4   44     1    44    6.1826E+00  2.0203E-03   6.1806E+00  0.000E+00  0.000E+00  0.000E+00  1.28833E+02  1.883E+00  4.065E+00  8.479E-04  2.039E-03 -1.855E-05
   1    4   45     1    45    6.1806E+00  2.0197E-03   6.1786E+00  0.000E+00  0.000E+00  0.000E+00  1.28532E+02  1.882E+00  4.064E+00  8.478E-04  2.108E-03 -8.825E-05
   1    4   46     1    46    6.1786E+00  2.0192E-03   6.1766E+00  0.000E+00  0.000E+00  0.000E+00  1.28232E+02  1.882E+00  4.064E+00  8.477E-04  2.112E-03 -9.271E-05
   1    4   47     1    47    6.1766E+00  2.0187E-03   6.1746E+00  0.000E+00  0.000E+00  0.000E+00  1.27932E+02  1.882E+00  4.064E+00  8.476E-04  2.117E-03 -9.819E-05
   1    4   48     1    48    6.1746E+00  2.0182E-03   6.1725E+00  0.000E+00  0.000E+00  0.000E+00  1.27631E+02  1.881E+00  4.063E+00  8.475E-04  2.113E-03 -9.487E-05
   1    4   49     1    49    6.1725E+00  2.0177E-03   6.1705E+00  0.000E+00  0.000E+00  0.000E+00  1.27331E+02  1.881E+00  4.063E+00  8.474E-04  2.006E-03  1.189E-05
   1    4   50     1    50    6.1705E+00  2.0172E-03   6.1685E+00  0.000E+00  0.000E+00  0.000E+00  1.27031E+02  1.881E+00  4.063E+00  8.473E-04  1.950E-03  6.694E-05
   1    4   51     1    51    6.1685E+00  2.0167E-03   6.1665E+00  0.000E+00  0.000E+00  0.000E+00  1.26730E+02  1.880E+00  4.062E+00  8.472E-04  1.948E-03  6.873E-05
   1    4   52     1    52    6.1665E+00  2.0161E-03   6.1645E+00  0.000E+00  0.000E+00  0.000E+00  1.26430E+02  1.880E+00  4.062E+00  8.471E-04  1.947E-03  6.919E-05
   1    4   53     1    53    6.1645E+00  2.0156E-03   6.1625E+00  0.000E+00  0.000E+00  0.000E+00  1.26130E+02  1.880E+00  4.061E+00  8.470E-04  1.946E-03  6.934E-05
   1    4   54     1    54    6.1625E+00  2.0151E-03   6.1604E+00  0.000E+00  0.000E+00  0.000E+00  1.25829E+02  1.879E+00  4.061E+00  8.469E-04  1.946E-03  6.918E-05
   1    4   55     1    55    6.1604E+00  2.0146E-03   6.1584E+00  0.000E+00  0.000E+00  0.000E+00  1.25529E+02  1.879E+00  4.061E+00  8.468E-04  1.947E-03  6.771E-05
   1    4   56     1    56    6.1584E+00  2.0141E-03   6.1564E+00  0.000E+00  0.000E+00  0.000E+00  1.25229E+02  1.879E+00  4.060E+00  8.467E-04  1.992E-03  2.190E-05
   1    4   57     1    57    6.1564E+00  2.0136E-03   6.1544E+00  0.000E+00  0.000E+00  0.000E+00  1.24928E+02  1.878E+00  4.060E+00  8.466E-04  2.092E-03 -7.810E-05
   1    4   58     1    58    6.1544E+00  2.0131E-03   6.1524E+00  0.000E+00  0.000E+00  0.000E+00  1.24628E+02  1.878E+00  4.060E+00  8.465E-04  2.112E-03 -9.921E-05
   1    4   59     1    59    6.1524E+00  2.0125E-03   6.1504E+00  0.000E+00  0.000E+00  0.000E+00  1.24328E+02  1.878E+00  4.059E+00  8.464E-04  2.107E-03 -9.401E-05
   1    4   60     1    60    6.1504E+00  2.0120E-03   6.1484E+00  0.000E+00  0.000E+00  0.000E+00  1.24027E+02  1.877E+00  4.059E+00  8.463E-04  2.102E-03 -8.970E-05
   1    4   61     1    61    6.1484E+00  2.0115E-03   6.1464E+00  0.000E+00  0.000E+00  0.000E+00  1.23727E+02  1.877E+00  4.058E+00  8.462E-04  2.032E-03 -2.048E-05
   1    4   62     1    62    6.1464E+00  2.0110E-03   6.1443E+00  0.000E+00  0.000E+00  0.000E+00  1.23427E+02  1.877E+00  4.058E+00  8.461E-04  2.029E-03 -1.811E-05
   1    4   63     1    63    6.1443E+00  2.0105E-03   6.1423E+00  0.000E+00  0.000E+00  0.000E+00  1.23127E+02  1.877E+00  4.058E+00  8.460E-04  2.026E-03 -1.597E-05
   1    4   64     1    64    6.1423E+00  2.0100E-03   6.1403E+00  0.000E+00  0.000E+00  0.000E+00  1.22826E+02  1.876E+00  4.057E+00  8.459E-04  2.024E-03 -1.412E-05
   1    4   65     1    65    6.1403E+00  2.0095E-03   6.1383E+00  0.000E+00  0.000E+00  0.000E+00  1.22526E+02  1.876E+00  4.057E+00  8.458E-04  2.022E-03 -1.254E-05
   1    4   66     1    66    6.1383E+00  2.0090E-03   6.1363E+00  0.000E+00  0.000E+00  0.000E+00  1.22226E+02  1.876E+00  4.056E+00  8.457E-04  2.020E-03 -1.122E-05
   1    4   67     1    67    6.1363E+00  2.0084E-03   6.1343E+00  0.000E+00  0.000E+00  0.000E+00  1.21925E+02  1.875E+00  4.056E+00  8.456E-04  2.019E-03 -1.014E-05
   1    4   68     1    68    6.1343E+00  2.0079E-03   6.1323E+00  0.000E+00  0.000E+00  0.000E+00  1.21625E+02  1.875E+00  4.056E+00  8.455E-04  2.017E-03 -9.295E-06
   1    4   69     1    69    6.1323E+00  2.0074E-03   6.1303E+00  0.000E+00  0.000E+00  0.000E+00  1.21325E+02  1.875E+00  4.055E+00  8.454E-04  1.989E-03  1.886E-05
   1    4   70     1    70    6.1303E+00  2.0069E-03   6.1283E+00  0.000E+00  0.000E+00  0.000E+00  1.21024E+02  1.874E+00  4.055E+00  8.453E-04  1.988E-03  1.911E-05
   1    4   71     1    71    6.1283E+00  2.0064E-03   6.1263E+00  0.000E+00  0.000E+00  0.000E+00  1.20724E+02  1.874E+00  4.055E+00  8.452E-04  1.987E-03  1.916E-05
   1    4   72     1    72    6.1263E+00  2.0059E-03   6.1243E+00  0.000E+00  0.000E+00  0.000E+00  1.20424E+02  1.874E+00  4.054E+00  8.451E-04  1.987E-03  1.901E-05
   1    4   73     1    73    6.1243E+00  2.0054E-03   6.1223E+00  0.000E+00  0.000E+00  0.000E+00  1.20123E+02  1.873E+00  4.054E+00  8.450E-04  1.987E-03  1.869E-05
   1    4   74     1    74    6.1223E+00  2.0049E-03   6.1203E+00  0.000E+00  0.000E+00  0.000E+00  1.19823E+02  1.873E+00  4.053E+00  8.448E-04  1.987E-03  1.819E-05
   1    4   75     1    75    6.1203E+00  2.0043E-03   6.1182E+00  0.000E+00  0.000E+00  0.000E+00  1.19523E+02  1.873E+00  4.053E+00  8.447E-04  1.968E-03  3.641E-05
   1    4   76     1    76    6.1182E+00  2.0038E-03   6.1162E+00  0.000E+00  0.000E+00  0.000E+00  1.19222E+02  1.872E+00  4.053E+00  8.446E-04  1.968E-03  3.553E-05
   1    4   77     1    77    6.1162E+00  2.0033E-03   6.1142E+00  0.000E+00  0.000E+00  0.000E+00  1.18922E+02  1.872E+00  4.052E+00  8.445E-04  1.969E-03  3.450E-05
   1    4   78     1    78    6.1142E+00  2.0028E-03   6.1122E+00  0.000E+00  0.000E+00  0.000E+00  1.18622E+02  1.872E+00  4.052E+00  8.444E-04  1.969E-03  3.333E-05
   1    4   79     1    79    6.1122E+00  2.0023E-03   6.1102E+00  0.000E+00  0.000E+00  0.000E+00  1.18321E+02  1.871E+00  4.052E+00  8.443E-04  1.970E-03  3.201E-05
   1    4   80     1    80    6.1102E+00  2.0018E-03   6.1082E+00  0.000E+00  0.000E+00  0.000E+00  1.18021E+02  1.871E+00  4.051E+00  8.442E-04  1.971E-03  3.056E-05
   1    4   81     1    81    6.1082E+00  2.0013E-03   6.1062E+00  0.000E+00  0.000E+00  0.000E+00  1.17721E+02  1.871E+00  4.051E+00  8.441E-04  1.972E-03  2.897E-05
   1    4   82     1    82    6.1062E+00  2.0008E-03   6.1042E+00  0.000E+00  0.000E+00  0.000E+00  1.17421E+02  1.871E+00  4.050E+00  8.440E-04  1.974E-03  2.725E-05
   1    4   83     1    83    6.1042E+00  2.0003E-03   6.1022E+00  0.000E+00  0.000E+00  0.000E+00  1.17120E+02  1.870E+00  4.050E+00  8.439E-04  1.975E-03  2.541E-05
   1    4   84     1    84    6.1022E+00  1.9997E-03   6.1002E+00  0.000E+00  0.000E+00  0.000E+00  1.16820E+02  1.870E+00  4.050E+00  8.438E-04  1.976E-03  2.345E-05
   1    4   85     1    85    6.1002E+00  1.9992E-03   6.0982E+00  0.000E+00  0.000E+00  0.000E+00  1.16520E+02  1.870E+00  4.049E+00  8.437E-04  1.978E-03  2.135E-05
   1    4   86     1    86    6.0982E+00  1.9987E-03   6.0962E+00  0.000E+00  0.000E+00  0.000E+00  1.16219E+02  1.869E+00  4.049E+00  8.436E-04  1.980E-03  1.910E-05
   1    4   87     1    87    6.0962E+00  1.9982E-03   6.0942E+00  0.000E+00  0.000E+00  0.000E+00  1.15919E+02  1.869E+00  4.049E+00  8.435E-04  2.029E-03 -3.083E-05
   1    4   88     1    88    6.0942E+00  1.9977E-03   6.0922E+00  0.000E+00  0.000E+00  0.000E+00  1.15619E+02  1.869E+00  4.048E+00  8.434E-04  2.049E-03 -5.137E-05
   1    4   89     1    89    6.0922E+00  1.9972E-03   6.0902E+00  0.000E+00  0.000E+00  0.000E+00  1.15318E+02  1.868E+00  4.048E+00  8.433E-04  2.051E-03 -5.367E-05
   1    4   90     1    90    6.0902E+00  1.9967E-03   6.0882E+00  0.000E+00  0.000E+00  0.000E+00  1.15018E+02  1.868E+00  4.047E+00  8.432E-04  2.053E-03 -5.610E-05
   1    4   91     1    91    6.0882E+00  1.9962E-03   6.0862E+00  0.000E+00  0.000E+00  0.000E+00  1.14718E+02  1.868E+00  4.047E+00  8.431E-04  2.055E-03 -5.858E-05
   1    4   92     1    92    6.0862E+00  1.9957E-03   6.0843E+00  0.000E+00  0.000E+00  0.000E+00  1.14417E+02  1.867E+00  4.047E+00  8.430E-04  2.057E-03 -6.110E-05
   1    4   93     1    93    6.0843E+00  1.9951E-03   6.0823E+00  0.000E+00  0.000E+00  0.000E+00  1.14117E+02  1.867E+00  4.046E+00  8.429E-04  2.059E-03 -6.364E-05
   1    4   94     1    94    6.0823E+00  1.9946E-03   6.0803E+00  0.000E+00  0.000E+00  0.000E+00  1.13817E+02  1.867E+00  4.046E+00  8.428E-04  2.061E-03 -6.618E-05
   1    4   95     1    95    6.0803E+00  1.9941E-03   6.0783E+00  0.000E+00  0.000E+00  0.000E+00  1.13516E+02  1.866E+00  4.046E+00  8.427E-04  2.063E-03 -6.872E-05
   1    4   96     1    96    6.0783E+00  1.9936E-03   6.0763E+00  0.000E+00  0.000E+00  0.000E+00  1.13216E+02  1.866E+00  4.045E+00  8.426E-04  2.065E-03 -7.125E-05
   1    4   97     1    97    6.0763E+00  1.9931E-03   6.0743E+00  0.000E+00  0.000E+00  0.000E+00  1.12916E+02  1.866E+00  4.045E+00  8.425E-04  2.067E-03 -7.375E-05
   1    4   98     1    98    6.0743E+00  1.9926E-03   6.0723E+00  0.000E+00  0.000E+00  0.000E+00  1.12615E+02  1.865E+00  4.044E+00  8.424E-04  2.069E-03 -7.623E-05
   1    4   99     1    99    6.0723E+00  1.9921E-03   6.0703E+00  0.000E+00  0.000E+00  0.000E+00  1.12315E+02  1.865E+00  4.044E+00  8.423E-04  2.071E-03 -7.868E-05
   1    4  100     1   100    6.0703E+00  1.9916E-03   6.0683E+00  0.000E+00  0.000E+00  0.000E+00  1.12015E+02  1.865E+00  4.044E+00  8.422E-04  2.073E-03 -8.112E-05



1
  VOLUMETRIC BUDGET FOR UNSATURATED ZONE BENEATH STREAMS AT END OF TIME STEP    30 STRESS PERIOD  32
  ------------------------------------------------------------------------------------------------

    CUMULATIVE VOLUMES             L**3    RATES FOR THIS TIME STEP         L**3/T
    ------------------                     ------------------------


          STREAM LOSS =     29846358.0000            STREAM LOSS =            0.2017
    CHANGE IN STORAGE =      1452345.7500      CHANGE IN STORAGE =        5.1237E-04
       RECHARGE TO GW =     28401586.0000         RECHARGE TO GW =            0.2012

             TOTAL IN =     29846358.0000               TOTAL IN =            0.2017

            TOTAL OUT =     29853932.0000              TOTAL OUT =            0.2017

             IN - OUT =        -7574.0000               IN - OUT =        2.9802E-08

  PERCENT DISCREPANCY =           -0.01      PERCENT DISCREPANCY =             0.00



1
  VOLUMETRIC BUDGET FOR ENTIRE MODEL AT END OF TIME STEP   30, STRESS PERIOD  32
  ------------------------------------------------------------------------------

     CUMULATIVE VOLUMES      L**3       RATES FOR THIS TIME STEP      L**3/T
     ------------------                 ------------------------

           IN:                                      IN:
           ---                                      ---
             STORAGE     =   102160144.0000               STORAGE     =           0.4347
       CONSTANT HEAD     =           0.0000         CONSTANT HEAD     =           0.0000
               WELLS     =           0.0000                 WELLS     =           0.0000
     HEAD DEP BOUNDS     =      453206.5938       HEAD DEP BOUNDS     =       4.3958E-02
      STREAM LEAKAGE     =    28401114.0000        STREAM LEAKAGE     =           0.2012

                TOTAL IN =   131014464.0000                  TOTAL IN =           0.6798

          OUT:                                     OUT:
          ----                                     ----
             STORAGE     =     3027673.7500               STORAGE     =           0.0000
       CONSTANT HEAD     =           0.0000         CONSTANT HEAD     =           0.0000
               WELLS     =   111627440.0000                 WELLS     =           0.6798
     HEAD DEP BOUNDS     =    16359348.0000       HEAD DEP BOUNDS     =           0.0000
      STREAM LEAKAGE     =           0.0000        STREAM LEAKAGE     =           0.0000

               TOTAL OUT =   131014464.0000                 TOTAL OUT =           0.6798

                IN - OUT =           0.0000                  IN - OUT =      -5.9605E-08

     PERCENT DISCREPANCY =           0.00         PERCENT DISCREPANCY =          -0.00






         TIME SUMMARY AT END OF TIME STEP   30 IN STRESS PERIOD   32
                    SECONDS     MINUTES      HOURS       DAYS        YEARS
                    -----------------------------------------------------------
   TIME STEP LENGTH 2.49961E+05  4166.0      69.434      2.8931     7.92080E-03
 STRESS PERIOD TIME 2.59200E+06  43200.      720.00      30.000     8.21355E-02
         TOTAL TIME 8.29440E+07 1.38240E+06  23040.      960.00      2.6283    
1
1
                            STRESS PERIOD NO.   33, LENGTH =   2592000.    
                            -----------------------------------------------

                              NUMBER OF TIME STEPS =    30

                               MULTIPLIER FOR DELT =     1.100

                            INITIAL TIME STEP SIZE =   15757.40    

 REUSING NON-PARAMETER WELLS FROM LAST STRESS PERIOD

      1 WELL 

 REUSING NON-PARAMETER GHB CELLS FROM LAST STRESS PERIOD

      7 GHB CELLS



 CLASSIFICATION & COUNT OF STREAM SEGMENTS BASED ON SOURCE OF INFLOW:

                HEADWATER     DIVERSION     RECEIVES TRIBUTARY FLOW
                ---------     ---------     -----------------------
                     1              0               0



                    INPUT DATA FOR EACH STREAM SEGMENT
 ---------------------------------------------------------------------------------------------

 SEGMENT    SEG.     INFLOW   OVERLAND   STREAM    STREAM   ICALC  OUTFLOW  DIVERSION PRIORITY
    NO.    LENGTH     RATE     RUNOFF      ET       PPT.    METH.  TO SEG.  FROM SEG.    NO.

      1  2.000E+04 2.070E+00 0.000E+00 0.000E+00 0.000E+00    2        0        0        0


         STREAMBED PROPERTIES AND STREAM DIMENSIONS

 SEGMENT     BED HYD. COND.      BED THICKNESS     ELEV.-TOP OF BED     WIDTH OF STREAM     DEPTH OF STREAM    STREAM ROUGHNESS
    No.     UPPER     LOWER     UPPER     LOWER     UPPER     LOWER     UPPER     LOWER     UPPER     LOWER   CHANNEL      BANK

     1  3.500E-07 3.500E-07                                                                                 3.000E-02 4.000E-02

  EIGHT POINT CROSS-SECTION DATA FOR SEGMENTS WITH ICALC = 2
    X VALUES X VALUES START FROM LEFT SIDE LOOKING DOWNSTREAM

     SEGMENT NO.        X1        X2        X3        X4        X5        X6        X7        X8
            1      0.000E+00 2.000E+00 4.000E+00 6.000E+00 8.000E+00 1.000E+01 1.200E+01 1.400E+01

    Z VALUES ARE RELATIVE TO STREAMBED ELEVATION

     SEGMENT NO.          Z1        Z2        Z3        Z4        Z5        Z6        Z7        Z8
            1      6.000E+00 4.500E+00 3.500E+00 0.000E+00 3.000E-01 3.500E+00 4.500E+00 6.000E+00



 
 SOLVING FOR HEAD 
                                                   Max.-Head-Change                         Max.-Flux-Residual
  Residual-Control   Outer-Iter.   Inner-Iter.     Column Row Layer    Maximum-Head-Change  Column Row Layer    Maximum-Flux-Residual          L2-NORM 
          0                 1           2             2    1     1      -0.5172424627E-02      50    3    1        -0.6630014570E-01      0.8539786872E-01
          0                 2           2             2    1     1       0.5024676239E-03      50    3    1         0.5001454644E-02      0.6396597550E-02
          0                 3           1             2    1     1      -0.4420820610E-04      50    3    1        -0.4616569301E-03      0.5904329180E-03
          0                 4           1             2    1     1       0.3478529604E-05      50    3    1         0.3688405668E-04      0.4725730549E-04
          0                 5           1             2    1     1      -0.2410718910E-06      50    3    1        -0.2593504655E-05      0.3327000682E-05

    ------------------------------------------------
       NWT REQUIRED            5 OUTER ITERATIONS 
       AND A TOTAL OF          7 INNER ITERATIONS.
    ------------------------------------------------

 NO OUTPUT CONTROL FOR STRESS PERIOD   33   TIME STEP    1
 
 WELLS WITH REDUCED PUMPING FOR STRESS PERIOD    33 TIME STEP     1
   LAY   ROW   COL         APPL.Q          ACT.Q        GW-HEAD       CELL-BOT
     1     3    50  -0.150014E+01  -0.385459E+00   0.371391E-03   0.000000E+00
     1     5    55  -0.150014E+01  -0.294269E+00   0.315245E-03   0.000000E+00
 
 
 SOLVING FOR HEAD 
                                                   Max.-Head-Change                         Max.-Flux-Residual
  Residual-Control   Outer-Iter.   Inner-Iter.     Column Row Layer    Maximum-Head-Change  Column Row Layer    Maximum-Flux-Residual          L2-NORM 
          0                 1           2             2    1     1      -0.5686714369E-02       2    1    1        -0.1076284969E-02      0.1829841560E-01
          0                 2           2             2    1     1       0.5511299254E-03       2    1    1         0.1076283313E-03      0.1778056519E-02
          0                 3           1             2    1     1      -0.4839057575E-04       2    1    1        -0.9686567346E-05      0.1629208911E-03
          0                 4           1             2    1     1       0.3801331742E-05       1    1    1         0.7758878446E-06      0.1336382429E-04
          0                 5           1             2    1     1      -0.2631198562E-06       1    7    1        -0.5454416430E-07      0.9563012635E-06

    ------------------------------------------------
       NWT REQUIRED            5 OUTER ITERATIONS 
       AND A TOTAL OF          7 INNER ITERATIONS.
    ------------------------------------------------

 NO OUTPUT CONTROL FOR STRESS PERIOD   33   TIME STEP    2
 
 WELLS WITH REDUCED PUMPING FOR STRESS PERIOD    33 TIME STEP     2
   LAY   ROW   COL         APPL.Q          ACT.Q        GW-HEAD       CELL-BOT
     1     3    50  -0.150025E+01  -0.385413E+00   0.371349E-03   0.000000E+00
     1     5    55  -0.150025E+01  -0.294228E+00   0.315207E-03   0.000000E+00
 
 
 SOLVING FOR HEAD 
                                                   Max.-Head-Change                         Max.-Flux-Residual
  Residual-Control   Outer-Iter.   Inner-Iter.     Column Row Layer    Maximum-Head-Change  Column Row Layer    Maximum-Flux-Residual          L2-NORM 
          0                 1           2             2    1     1      -0.6252430141E-02       2    1    1        -0.1075956050E-02      0.1829110406E-01
          0                 2           2             2    1     1       0.6044515319E-03       2    1    1         0.1075954099E-03      0.1777505684E-02
          0                 3           1             2    1     1      -0.5295440250E-04       2    1    1        -0.9683607917E-05      0.1630586123E-03
          0                 4           1             2    1     1       0.4152140092E-05       2    1    1         0.7756449136E-06      0.1340654178E-04
          0                 5           1             2    1     1      -0.2869925254E-06       1    4    1         0.5699547856E-07      0.9617726377E-06

    ------------------------------------------------
       NWT REQUIRED            5 OUTER ITERATIONS 
       AND A TOTAL OF          7 INNER ITERATIONS.
    ------------------------------------------------

 NO OUTPUT CONTROL FOR STRESS PERIOD   33   TIME STEP    3
 
 WELLS WITH REDUCED PUMPING FOR STRESS PERIOD    33 TIME STEP     3
   LAY   ROW   COL         APPL.Q          ACT.Q        GW-HEAD       CELL-BOT
     1     3    50  -0.149981E+01  -0.385366E+00   0.371386E-03   0.000000E+00
     1     5    55  -0.149981E+01  -0.294185E+00   0.315234E-03   0.000000E+00
 
 
 SOLVING FOR HEAD 
                                                   Max.-Head-Change                         Max.-Flux-Residual
  Residual-Control   Outer-Iter.   Inner-Iter.     Column Row Layer    Maximum-Head-Change  Column Row Layer    Maximum-Flux-Residual          L2-NORM 
          0                 1           2             2    1     1      -0.6874642204E-02       2    1    1        -0.1075689326E-02      0.1828379169E-01
          0                 2           2             2    1     1       0.6628694015E-03       2    1    1         0.1075687017E-03      0.1776661477E-02
          0                 3           1             2    1     1      -0.5793286291E-04       2    1    1        -0.9681208297E-05      0.1631592050E-03
          0                 4           1             2    1     1       0.4533129268E-05       1    1    1         0.7754491982E-06      0.1344748361E-04
          0                 5           1             2    1     1      -0.3128116197E-06       1    4    1         0.5957107874E-07      0.9673367996E-06

    ------------------------------------------------
       NWT REQUIRED            5 OUTER ITERATIONS 
       AND A TOTAL OF          7 INNER ITERATIONS.
    ------------------------------------------------

 NO OUTPUT CONTROL FOR STRESS PERIOD   33   TIME STEP    4
 
 WELLS WITH REDUCED PUMPING FOR STRESS PERIOD    33 TIME STEP     4
   LAY   ROW   COL         APPL.Q          ACT.Q        GW-HEAD       CELL-BOT
     1     3    50  -0.150021E+01  -0.385315E+00   0.371299E-03   0.000000E+00
     1     5    55  -0.150021E+01  -0.294138E+00   0.315158E-03   0.000000E+00
 
 
 SOLVING FOR HEAD 
                                                   Max.-Head-Change                         Max.-Flux-Residual
  Residual-Control   Outer-Iter.   Inner-Iter.     Column Row Layer    Maximum-Head-Change  Column Row Layer    Maximum-Flux-Residual          L2-NORM 
          0                 1           2             1    1     1      -0.7558998946E-02       2    1    1        -0.1075467988E-02      0.1827678685E-01
          0                 2           2             2    1     1       0.7268611378E-03       2    1    1         0.1075465243E-03      0.1775894517E-02
          0                 3           1             2    1     1      -0.6336215964E-04       2    1    1        -0.9679217179E-05      0.1632682801E-03
          0                 4           1             2    1     1       0.4946666352E-05       1    1    1         0.7753012667E-06      0.1349028486E-04
          0                 5           1             2    1     1      -0.3407083859E-06       1    4    1         0.6212399484E-07      0.9732255873E-06

    ------------------------------------------------
       NWT REQUIRED            5 OUTER ITERATIONS 
       AND A TOTAL OF          7 INNER ITERATIONS.
    ------------------------------------------------

 NO OUTPUT CONTROL FOR STRESS PERIOD   33   TIME STEP    5
 
 WELLS WITH REDUCED PUMPING FOR STRESS PERIOD    33 TIME STEP     5
   LAY   ROW   COL         APPL.Q          ACT.Q        GW-HEAD       CELL-BOT
     1     3    50  -0.150010E+01  -0.385258E+00   0.371282E-03   0.000000E+00
     1     5    55  -0.150010E+01  -0.294087E+00   0.315139E-03   0.000000E+00
 
 
 SOLVING FOR HEAD 
                                                   Max.-Head-Change                         Max.-Flux-Residual
  Residual-Control   Outer-Iter.   Inner-Iter.     Column Row Layer    Maximum-Head-Change  Column Row Layer    Maximum-Flux-Residual          L2-NORM 
          0                 1           2             1    1     1      -0.8311570091E-02       1    1    1        -0.1075290351E-02      0.1827104860E-01
          0                 2           2             1    1     1       0.7969667490E-03       1    1    1         0.1075287109E-03      0.1775236610E-02
          0                 3           1             1    1     1      -0.6928237651E-04       1    1    1        -0.9677619605E-05      0.1633873155E-03
          0                 4           1             1    1     1       0.5395410179E-05       1    1    1         0.7751770923E-06      0.1353474588E-04
          0                 5           1             1    1     1      -0.3708350059E-06       1    4    1         0.6464489388E-07      0.9794059855E-06

    ------------------------------------------------
       NWT REQUIRED            5 OUTER ITERATIONS 
       AND A TOTAL OF          7 INNER ITERATIONS.
    ------------------------------------------------

 NO OUTPUT CONTROL FOR STRESS PERIOD   33   TIME STEP    6
 
 WELLS WITH REDUCED PUMPING FOR STRESS PERIOD    33 TIME STEP     6
   LAY   ROW   COL         APPL.Q          ACT.Q        GW-HEAD       CELL-BOT
     1     3    50  -0.149991E+01  -0.385197E+00   0.371275E-03   0.000000E+00
     1     5    55  -0.149991E+01  -0.294032E+00   0.315128E-03   0.000000E+00
 
 
 SOLVING FOR HEAD 
                                                   Max.-Head-Change                         Max.-Flux-Residual
  Residual-Control   Outer-Iter.   Inner-Iter.     Column Row Layer    Maximum-Head-Change  Column Row Layer    Maximum-Flux-Residual          L2-NORM 
          0                 1           2             1    1     1      -0.9138993764E-02       1    1    1        -0.1075130854E-02      0.1826199943E-01
          0                 2           2             1    1     1       0.8737561250E-03       1    1    1         0.1075126996E-03      0.1774469909E-02
          0                 3           1             1    1     1      -0.7573849214E-04       1    1    1        -0.9676185183E-05      0.1635339953E-03
          0                 4           1             1    1     1       0.5882250062E-05       1    1    1         0.7750621087E-06      0.1358432172E-04
          0                 5           1             1    1     1      -0.4033425007E-06       1    4    1         0.6712489764E-07      0.9861465398E-06

    ------------------------------------------------
       NWT REQUIRED            5 OUTER ITERATIONS 
       AND A TOTAL OF          7 INNER ITERATIONS.
    ------------------------------------------------

 NO OUTPUT CONTROL FOR STRESS PERIOD   33   TIME STEP    7
 
 WELLS WITH REDUCED PUMPING FOR STRESS PERIOD    33 TIME STEP     7
   LAY   ROW   COL         APPL.Q          ACT.Q        GW-HEAD       CELL-BOT
     1     3    50  -0.149983E+01  -0.385146E+00   0.371259E-03   0.000000E+00
     1     5    55  -0.149983E+01  -0.294001E+00   0.315120E-03   0.000000E+00
 
 
 SOLVING FOR HEAD 
                                                   Max.-Head-Change                         Max.-Flux-Residual
  Residual-Control   Outer-Iter.   Inner-Iter.     Column Row Layer    Maximum-Head-Change  Column Row Layer    Maximum-Flux-Residual          L2-NORM 
          0                 1           2             1    1     1      -0.1004863182E-01       1    1    1        -0.1074969639E-02      0.1825173097E-01
          0                 2           2             1    1     1       0.9578645116E-03       1    1    1         0.1074965057E-03      0.1773706796E-02
          0                 3           1             1    1     1      -0.8277786868E-04       1    1    1        -0.9674735349E-05      0.1636520276E-03
          0                 4           1             1    1     1       0.6410258833E-05       1    1    1         0.7749458710E-06      0.1363004869E-04
          0                 5           1             1    1     1      -0.4383990134E-06       1    4    1         0.6955544762E-07      0.9927135836E-06

    ------------------------------------------------
       NWT REQUIRED            5 OUTER ITERATIONS 
       AND A TOTAL OF          7 INNER ITERATIONS.
    ------------------------------------------------

 NO OUTPUT CONTROL FOR STRESS PERIOD   33   TIME STEP    8
 
 WELLS WITH REDUCED PUMPING FOR STRESS PERIOD    33 TIME STEP     8
   LAY   ROW   COL         APPL.Q          ACT.Q        GW-HEAD       CELL-BOT
     1     3    50  -0.149987E+01  -0.385115E+00   0.371236E-03   0.000000E+00
     1     5    55  -0.149987E+01  -0.293969E+00   0.315096E-03   0.000000E+00
 
 
 SOLVING FOR HEAD 
                                                   Max.-Head-Change                         Max.-Flux-Residual
  Residual-Control   Outer-Iter.   Inner-Iter.     Column Row Layer    Maximum-Head-Change  Column Row Layer    Maximum-Flux-Residual          L2-NORM 
          0                 1           2             1    1     1      -0.1104858563E-01       1    1    1        -0.1074796838E-02      0.1824167244E-01
          0                 2           2             1    1     1       0.1049995519E-02       1    1    1         0.1074791415E-03      0.1772532669E-02
          0                 3           1             1    1     1      -0.9045408940E-04       1    1    1        -0.9673181353E-05      0.1637082709E-03
          0                 4           1             1    1     1       0.6982906547E-05       1    4    1        -0.7838481828E-06      0.1367069334E-04
          0                 5           1             1    1     1      -0.4761913611E-06       1    4    1         0.7192826246E-07      0.9990708791E-06

    ------------------------------------------------
       NWT REQUIRED            5 OUTER ITERATIONS 
       AND A TOTAL OF          7 INNER ITERATIONS.
    ------------------------------------------------

 NO OUTPUT CONTROL FOR STRESS PERIOD   33   TIME STEP    9
 
 WELLS WITH REDUCED PUMPING FOR STRESS PERIOD    33 TIME STEP     9
   LAY   ROW   COL         APPL.Q          ACT.Q        GW-HEAD       CELL-BOT
     1     3    50  -0.149994E+01  -0.385060E+00   0.371195E-03   0.000000E+00
     1     5    55  -0.149994E+01  -0.293918E+00   0.315057E-03   0.000000E+00
 
 
 SOLVING FOR HEAD 
                                                   Max.-Head-Change                         Max.-Flux-Residual
  Residual-Control   Outer-Iter.   Inner-Iter.     Column Row Layer    Maximum-Head-Change  Column Row Layer    Maximum-Flux-Residual          L2-NORM 
          0                 1           2             1    1     1      -0.1214776737E-01       1    1    1        -0.1074605746E-02      0.1823332723E-01
          0                 2           2             1    1     1       0.1150925230E-02       1    1    1         0.1074599354E-03      0.1771607612E-02
          0                 3           1             1    1     1      -0.9882642940E-04       1    1    1        -0.9671462852E-05      0.1637846476E-03
          0                 4           1             1    1     1       0.7604024524E-05       1    4    1        -0.8028424467E-06      0.1371270595E-04
          0                 5           1             1    1     1      -0.5169247789E-06       1    4    1         0.7423548354E-07      0.1005607408E-05

    ------------------------------------------------
       NWT REQUIRED            5 OUTER ITERATIONS 
       AND A TOTAL OF          7 INNER ITERATIONS.
    ------------------------------------------------

 NO OUTPUT CONTROL FOR STRESS PERIOD   33   TIME STEP   10
 
 WELLS WITH REDUCED PUMPING FOR STRESS PERIOD    33 TIME STEP    10
   LAY   ROW   COL         APPL.Q          ACT.Q        GW-HEAD       CELL-BOT
     1     3    50  -0.149987E+01  -0.384987E+00   0.371163E-03   0.000000E+00
     1     5    55  -0.149987E+01  -0.293853E+00   0.315024E-03   0.000000E+00
 
 
 SOLVING FOR HEAD 
                                                   Max.-Head-Change                         Max.-Flux-Residual
  Residual-Control   Outer-Iter.   Inner-Iter.     Column Row Layer    Maximum-Head-Change  Column Row Layer    Maximum-Flux-Residual          L2-NORM 
          0                 1           2             1    1     1      -0.1335596877E-01       1    1    1        -0.1074391571E-02      0.1822341965E-01
          0                 2           2             1    1     1       0.1261508566E-02       1    1    1         0.1074384066E-03      0.1770797501E-02
          0                 3           2             1    1     1      -0.1079619932E-03       1    1    1        -0.9669536738E-05      0.1639221747E-03
          0                 4           1             1    1     1       0.8279547880E-05       1    4    1        -0.8211481415E-06      0.1376581522E-04
          0                 5           1             1    1     1      -0.5609343771E-06       1    4    1         0.7648570488E-07      0.1013077178E-05

    ------------------------------------------------
       NWT REQUIRED            5 OUTER ITERATIONS 
       AND A TOTAL OF          8 INNER ITERATIONS.
    ------------------------------------------------

 NO OUTPUT CONTROL FOR STRESS PERIOD   33   TIME STEP   11
 
 WELLS WITH REDUCED PUMPING FOR STRESS PERIOD    33 TIME STEP    11
   LAY   ROW   COL         APPL.Q          ACT.Q        GW-HEAD       CELL-BOT
     1     3    50  -0.150005E+01  -0.384899E+00   0.371088E-03   0.000000E+00
     1     5    55  -0.150005E+01  -0.293774E+00   0.314955E-03   0.000000E+00
 
 
 SOLVING FOR HEAD 
                                                   Max.-Head-Change                         Max.-Flux-Residual
  Residual-Control   Outer-Iter.   Inner-Iter.     Column Row Layer    Maximum-Head-Change  Column Row Layer    Maximum-Flux-Residual          L2-NORM 
          0                 1           2             1    1     1      -0.1468394615E-01       1    1    1        -0.1074150530E-02      0.1821056569E-01
          0                 2           2             1    1     1       0.1382687107E-02       1    1    1         0.1074141755E-03      0.1769767069E-02
          0                 3           2             1    1     1      -0.1179309739E-03       1    1    1        -0.9667368989E-05      0.1640124860E-03
          0                 4           1             1    1     1       0.9011815634E-05       1    4    1        -0.8385822845E-06      0.1381198042E-04
          0                 5           1             1    1     1      -0.6083155161E-06       1    4    1         0.7864725049E-07      0.1020089692E-05

    ------------------------------------------------
       NWT REQUIRED            5 OUTER ITERATIONS 
       AND A TOTAL OF          8 INNER ITERATIONS.
    ------------------------------------------------

 NO OUTPUT CONTROL FOR STRESS PERIOD   33   TIME STEP   12
 
 WELLS WITH REDUCED PUMPING FOR STRESS PERIOD    33 TIME STEP    12
   LAY   ROW   COL         APPL.Q          ACT.Q        GW-HEAD       CELL-BOT
     1     3    50  -0.150008E+01  -0.384797E+00   0.371028E-03   0.000000E+00
     1     5    55  -0.150008E+01  -0.293683E+00   0.314897E-03   0.000000E+00
 
 
 SOLVING FOR HEAD 
                                                   Max.-Head-Change                         Max.-Flux-Residual
  Residual-Control   Outer-Iter.   Inner-Iter.     Column Row Layer    Maximum-Head-Change  Column Row Layer    Maximum-Flux-Residual          L2-NORM 
          0                 1           2             1    1     1      -0.1614350901E-01       1    1    1        -0.1073879261E-02      0.1819960510E-01
          0                 2           2             1    1     1       0.1515497179E-02       1    1    1         0.1073869040E-03      0.1768264422E-02
          0                 3           2             1    1     1      -0.1288144188E-03       1    1    1        -0.9664929337E-05      0.1640046425E-03
          0                 4           1             1    1     1       0.9807172505E-05       1    4    1        -0.8551976549E-06      0.1384711777E-04
          0                 5           1             1    1     1      -0.6594129223E-06       1    4    1         0.8072499824E-07      0.1026260119E-05

    ------------------------------------------------
       NWT REQUIRED            5 OUTER ITERATIONS 
       AND A TOTAL OF          8 INNER ITERATIONS.
    ------------------------------------------------

 NO OUTPUT CONTROL FOR STRESS PERIOD   33   TIME STEP   13
 
 WELLS WITH REDUCED PUMPING FOR STRESS PERIOD    33 TIME STEP    13
   LAY   ROW   COL         APPL.Q          ACT.Q        GW-HEAD       CELL-BOT
     1     3    50  -0.150008E+01  -0.384683E+00   0.370963E-03   0.000000E+00
     1     5    55  -0.150008E+01  -0.293580E+00   0.314835E-03   0.000000E+00
 
 
 SOLVING FOR HEAD 
                                                   Max.-Head-Change                         Max.-Flux-Residual
  Residual-Control   Outer-Iter.   Inner-Iter.     Column Row Layer    Maximum-Head-Change  Column Row Layer    Maximum-Flux-Residual          L2-NORM 
          0                 1           2             1    1     1      -0.1774761736E-01       1    1    1        -0.1073574461E-02      0.1818708431E-01
          0                 2           2             1    1     1       0.1661078689E-02       1    1    1         0.1073562602E-03      0.1767236738E-02
          0                 3           2             1    1     1      -0.1407007324E-03       1    1    1        -0.9662188077E-05      0.1641107697E-03
          0                 4           1             1    1     1       0.1067151858E-04       1    4    1        -0.8709822836E-06      0.1389532696E-04
          0                 5           1             1    1     1      -0.7145299340E-06       2    4    1         0.8272316165E-07      0.1033436852E-05

    ------------------------------------------------
       NWT REQUIRED            5 OUTER ITERATIONS 
       AND A TOTAL OF          8 INNER ITERATIONS.
    ------------------------------------------------

 NO OUTPUT CONTROL FOR STRESS PERIOD   33   TIME STEP   14
 
 WELLS WITH REDUCED PUMPING FOR STRESS PERIOD    33 TIME STEP    14
   LAY   ROW   COL         APPL.Q          ACT.Q        GW-HEAD       CELL-BOT
     1     3    50  -0.150003E+01  -0.384554E+00   0.370897E-03   0.000000E+00
     1     5    55  -0.150003E+01  -0.293466E+00   0.314771E-03   0.000000E+00
 
 
 SOLVING FOR HEAD 
                                                   Max.-Head-Change                         Max.-Flux-Residual
  Residual-Control   Outer-Iter.   Inner-Iter.     Column Row Layer    Maximum-Head-Change  Column Row Layer    Maximum-Flux-Residual          L2-NORM 
          0                 1           2             1    1     1      -0.1951048856E-01       1    1    1        -0.1073232682E-02      0.1817198814E-01
          0                 2           2             1    1     1       0.1820684764E-02       1    1    1         0.1073218970E-03      0.1765921556E-02
          0                 3           2             1    1     1      -0.1536874217E-03       1    1    1        -0.9659114170E-05      0.1641429561E-03
          0                 4           1             1    1     1       0.1161138180E-04       1    4    1        -0.8859292784E-06      0.1393338172E-04
          0                 5           1             1    1     1      -0.7739915636E-06       2    4    1         0.8463569401E-07      0.1039648443E-05

    ------------------------------------------------
       NWT REQUIRED            5 OUTER ITERATIONS 
       AND A TOTAL OF          8 INNER ITERATIONS.
    ------------------------------------------------

 NO OUTPUT CONTROL FOR STRESS PERIOD   33   TIME STEP   15
 
 WELLS WITH REDUCED PUMPING FOR STRESS PERIOD    33 TIME STEP    15
   LAY   ROW   COL         APPL.Q          ACT.Q        GW-HEAD       CELL-BOT
     1     3    50  -0.150003E+01  -0.384412E+00   0.370817E-03   0.000000E+00
     1     5    55  -0.150003E+01  -0.293338E+00   0.314693E-03   0.000000E+00
 
 
 SOLVING FOR HEAD 
                                                   Max.-Head-Change                         Max.-Flux-Residual
  Residual-Control   Outer-Iter.   Inner-Iter.     Column Row Layer    Maximum-Head-Change  Column Row Layer    Maximum-Flux-Residual          L2-NORM 
          0                 1           2             1    1     1      -0.2144771429E-01       1    1    1        -0.1072850207E-02      0.1815584741E-01
          0                 2           2             1    1     1       0.1995692237E-02       1    1    1         0.1072834404E-03      0.1764280330E-02
          0                 3           2             1    1     1      -0.1678819477E-03       1    1    1        -0.9655674170E-05      0.1641350722E-03
          0                 4           1             1    1     1       0.1263397389E-04       1    4    1        -0.9000365111E-06      0.1396749387E-04
          0                 5           1             1    1     1      -0.8381418287E-06       2    4    1         0.8645659122E-07      0.1045438780E-05

    ------------------------------------------------
       NWT REQUIRED            5 OUTER ITERATIONS 
       AND A TOTAL OF          8 INNER ITERATIONS.
    ------------------------------------------------

 NO OUTPUT CONTROL FOR STRESS PERIOD   33   TIME STEP   16
 
 WELLS WITH REDUCED PUMPING FOR STRESS PERIOD    33 TIME STEP    16
   LAY   ROW   COL         APPL.Q          ACT.Q        GW-HEAD       CELL-BOT
     1     3    50  -0.150003E+01  -0.384254E+00   0.370729E-03   0.000000E+00
     1     5    55  -0.150003E+01  -0.293197E+00   0.314607E-03   0.000000E+00
 
 
 SOLVING FOR HEAD 
                                                   Max.-Head-Change                         Max.-Flux-Residual
  Residual-Control   Outer-Iter.   Inner-Iter.     Column Row Layer    Maximum-Head-Change  Column Row Layer    Maximum-Flux-Residual          L2-NORM 
          0                 1           2             1    1     1      -0.2357638811E-01       1    1    1        -0.1072422973E-02      0.1813671969E-01
          0                 2           2             1    1     1       0.2187613022E-02       1    1    1         0.1072404817E-03      0.1762661848E-02
          0                 3           2             1    1     1      -0.1834026374E-03       1    1    1        -0.9651831501E-05      0.1641759358E-03
          0                 4           1             1    1     1       0.1374724543E-04       1    4    1        -0.9133063053E-06      0.1400859089E-04
          0                 5           1             1    1     1      -0.9073363829E-06       2    4    1         0.8818370745E-07      0.1051695711E-05

    ------------------------------------------------
       NWT REQUIRED            5 OUTER ITERATIONS 
       AND A TOTAL OF          8 INNER ITERATIONS.
    ------------------------------------------------

 NO OUTPUT CONTROL FOR STRESS PERIOD   33   TIME STEP   17
 
 WELLS WITH REDUCED PUMPING FOR STRESS PERIOD    33 TIME STEP    17
   LAY   ROW   COL         APPL.Q          ACT.Q        GW-HEAD       CELL-BOT
     1     3    50  -0.150006E+01  -0.384079E+00   0.370626E-03   0.000000E+00
     1     5    55  -0.150006E+01  -0.293041E+00   0.314509E-03   0.000000E+00
 
 
 SOLVING FOR HEAD 
                                                   Max.-Head-Change                         Max.-Flux-Residual
  Residual-Control   Outer-Iter.   Inner-Iter.     Column Row Layer    Maximum-Head-Change  Column Row Layer    Maximum-Flux-Residual          L2-NORM 
          0                 1           2             1    1     1      -0.2591523902E-01       1    1    1        -0.1071946520E-02      0.1811702619E-01
          0                 2           2             1    1     1       0.2398105944E-02       1    1    1         0.1071925722E-03      0.1760563012E-02
          0                 3           2             1    1     1      -0.2003796237E-03       1    1    1        -0.9647546023E-05      0.1641025089E-03
          0                 4           1             1    1     1       0.1495993743E-04       1    4    1        -0.9257450522E-06      0.1403483307E-04
          0                 5           1             1    1     1      -0.9819293423E-06       2    4    1         0.8981545463E-07      0.1056412157E-05

    ------------------------------------------------
       NWT REQUIRED            5 OUTER ITERATIONS 
       AND A TOTAL OF          8 INNER ITERATIONS.
    ------------------------------------------------

 NO OUTPUT CONTROL FOR STRESS PERIOD   33   TIME STEP   18
 
 WELLS WITH REDUCED PUMPING FOR STRESS PERIOD    33 TIME STEP    18
   LAY   ROW   COL         APPL.Q          ACT.Q        GW-HEAD       CELL-BOT
     1     3    50  -0.150005E+01  -0.383886E+00   0.370519E-03   0.000000E+00
     1     5    55  -0.150005E+01  -0.292868E+00   0.314406E-03   0.000000E+00
 
 
 SOLVING FOR HEAD 
                                                   Max.-Head-Change                         Max.-Flux-Residual
  Residual-Control   Outer-Iter.   Inner-Iter.     Column Row Layer    Maximum-Head-Change  Column Row Layer    Maximum-Flux-Residual          L2-NORM 
          0                 1           2             1    1     1      -0.2848478145E-01       1    1    1        -0.1071415941E-02      0.1809553099E-01
          0                 2           2             1    1     1       0.2628989937E-02       1    1    1         0.1071392180E-03      0.1758596949E-02
          0                 3           2             1    1     1      -0.2189558858E-03       1    1    1        -0.9642773545E-05      0.1641032261E-03
          0                 4           1             1    1     1       0.1628163541E-04       1    4    1        -0.9373630476E-06      0.1407130723E-04
          0                 5           1             1    1     1      -0.1062258892E-05       2    4    1         0.9135083445E-07      0.1061719000E-05
          0                 6           1             1    1     1       0.6009836499E-07       2    4    1        -0.6840586764E-08      0.6861201430E-07

    ------------------------------------------------
       NWT REQUIRED            6 OUTER ITERATIONS 
       AND A TOTAL OF          9 INNER ITERATIONS.
    ------------------------------------------------

 NO OUTPUT CONTROL FOR STRESS PERIOD   33   TIME STEP   19
 
 WELLS WITH REDUCED PUMPING FOR STRESS PERIOD    33 TIME STEP    19
   LAY   ROW   COL         APPL.Q          ACT.Q        GW-HEAD       CELL-BOT
     1     3    50  -0.149997E+01  -0.383673E+00   0.370411E-03   0.000000E+00
     1     5    55  -0.149997E+01  -0.292678E+00   0.314300E-03   0.000000E+00
 
 
 SOLVING FOR HEAD 
                                                   Max.-Head-Change                         Max.-Flux-Residual
  Residual-Control   Outer-Iter.   Inner-Iter.     Column Row Layer    Maximum-Head-Change  Column Row Layer    Maximum-Flux-Residual          L2-NORM 
          0                 1           2             1    1     1      -0.3130748503E-01       1    7    1        -0.1070826830E-02      0.1807663474E-01
          0                 2           2             1    1     1       0.2882259156E-02       1    7    1         0.1070799750E-03      0.1756514478E-02
          0                 3           2             1    1     1      -0.2392884496E-03       1    7    1        -0.9637474387E-05      0.1640074325E-03
          0                 4           1             1    1     1       0.1772282306E-04       1    4    1        -0.9481783785E-06      0.1409280960E-04
          0                 5           1             1    1     1      -0.1148614820E-05       2    4    1         0.9278964086E-07      0.1065225519E-05
          0                 6           1             1    1     1       0.6452667138E-07       2    4    1        -0.6972580735E-08      0.6899799198E-07

    ------------------------------------------------
       NWT REQUIRED            6 OUTER ITERATIONS 
       AND A TOTAL OF          9 INNER ITERATIONS.
    ------------------------------------------------

 NO OUTPUT CONTROL FOR STRESS PERIOD   33   TIME STEP   20
 
 WELLS WITH REDUCED PUMPING FOR STRESS PERIOD    33 TIME STEP    20
   LAY   ROW   COL         APPL.Q          ACT.Q        GW-HEAD       CELL-BOT
     1     3    50  -0.149995E+01  -0.383438E+00   0.370281E-03   0.000000E+00
     1     5    55  -0.149995E+01  -0.292469E+00   0.314174E-03   0.000000E+00
 
 
 SOLVING FOR HEAD 
                                                   Max.-Head-Change                         Max.-Flux-Residual
  Residual-Control   Outer-Iter.   Inner-Iter.     Column Row Layer    Maximum-Head-Change  Column Row Layer    Maximum-Flux-Residual          L2-NORM 
          0                 1           2             1    1     1      -0.3440790939E-01       1    7    1        -0.1070171617E-02      0.1807709155E-01
          0                 2           2             1    1     1       0.3160093382E-02       1    7    1         0.1070140826E-03      0.1754983787E-02
          0                 3           2             1    1     1      -0.2615490730E-03       1    7    1        -0.9631580400E-05      0.1639096599E-03
          0                 4           1             1    1     1       0.1929488471E-04       1    4    1        -0.9581997027E-06      0.1411330880E-04
          0                 5           1             1    1     1      -0.1241205875E-05       2    4    1         0.9413116331E-07      0.1068228340E-05
          0                 6           1             1    1     1       0.6917877083E-07       2    4    1        -0.7094062227E-08      0.6932555479E-07

    ------------------------------------------------
       NWT REQUIRED            6 OUTER ITERATIONS 
       AND A TOTAL OF          9 INNER ITERATIONS.
    ------------------------------------------------

 NO OUTPUT CONTROL FOR STRESS PERIOD   33   TIME STEP   21
 
 WELLS WITH REDUCED PUMPING FOR STRESS PERIOD    33 TIME STEP    21
   LAY   ROW   COL         APPL.Q          ACT.Q        GW-HEAD       CELL-BOT
     1     3    50  -0.150000E+01  -0.383179E+00   0.370129E-03   0.000000E+00
     1     5    55  -0.150000E+01  -0.292239E+00   0.314029E-03   0.000000E+00
 
 
 SOLVING FOR HEAD 
                                                   Max.-Head-Change                         Max.-Flux-Residual
  Residual-Control   Outer-Iter.   Inner-Iter.     Column Row Layer    Maximum-Head-Change  Column Row Layer    Maximum-Flux-Residual          L2-NORM 
          0                 1           2             5    4     1      -0.3827899666E-01       1    7    1        -0.1069444119E-02      0.1815063054E-01
          0                 2           2             4    1     1       0.3502163264E-02       1    7    1         0.1069439473E-03      0.1754474893E-02
          0                 3           2             4    1     1      -0.2896629896E-03       1    7    1        -0.9625279990E-05      0.1632766098E-03
          0                 4           1             4    1     1       0.2131941509E-04       1    4    1        -0.9377329349E-06      0.1405059463E-04
          0                 5           1             4    1     1      -0.1359573008E-05       1    4    1         0.9314646476E-07      0.1062998563E-05
          0                 6           1             4    1     1       0.7487868293E-07       1    4    1        -0.7037844085E-08      0.6907354928E-07

    ------------------------------------------------
       NWT REQUIRED            6 OUTER ITERATIONS 
       AND A TOTAL OF          9 INNER ITERATIONS.
    ------------------------------------------------

 NO OUTPUT CONTROL FOR STRESS PERIOD   33   TIME STEP   22
 
 WELLS WITH REDUCED PUMPING FOR STRESS PERIOD    33 TIME STEP    22
   LAY   ROW   COL         APPL.Q          ACT.Q        GW-HEAD       CELL-BOT
     1     3    50  -0.149999E+01  -0.382894E+00   0.369970E-03   0.000000E+00
     1     5    55  -0.149999E+01  -0.291985E+00   0.313876E-03   0.000000E+00
 
 
 SOLVING FOR HEAD 
                                                   Max.-Head-Change                         Max.-Flux-Residual
  Residual-Control   Outer-Iter.   Inner-Iter.     Column Row Layer    Maximum-Head-Change  Column Row Layer    Maximum-Flux-Residual          L2-NORM 
          0                 1           2             3    4     1      -0.4428275169E-01       5    5    1        -0.1083434469E-02      0.1845801074E-01
          0                 2           2             4    1     1       0.3966235208E-02       5    3    1         0.1083614671E-03      0.1765448195E-02
          0                 3           2             4    1     1      -0.3273284211E-03       5    3    1        -0.9752924345E-05      0.1628954966E-03
          0                 4           1             4    1     1       0.2400234718E-04      23    4    1        -0.8585254907E-06      0.1397505034E-04
          0                 5           1             4    1     1      -0.1515337950E-05      23    4    1         0.8469901225E-07      0.1055379262E-05
          0                 6           1             1    1     1       0.8253209445E-07       4    4    1        -0.6642824957E-08      0.6864559735E-07

    ------------------------------------------------
       NWT REQUIRED            6 OUTER ITERATIONS 
       AND A TOTAL OF          9 INNER ITERATIONS.
    ------------------------------------------------

 NO OUTPUT CONTROL FOR STRESS PERIOD   33   TIME STEP   23
 
 WELLS WITH REDUCED PUMPING FOR STRESS PERIOD    33 TIME STEP    23
   LAY   ROW   COL         APPL.Q          ACT.Q        GW-HEAD       CELL-BOT
     1     3    50  -0.150003E+01  -0.382579E+00   0.369788E-03   0.000000E+00
     1     5    55  -0.150003E+01  -0.291706E+00   0.313702E-03   0.000000E+00
 
 
 SOLVING FOR HEAD 
                                                   Max.-Head-Change                         Max.-Flux-Residual
  Residual-Control   Outer-Iter.   Inner-Iter.     Column Row Layer    Maximum-Head-Change  Column Row Layer    Maximum-Flux-Residual          L2-NORM 
          0                 1           2             1    4     1      -0.5009654027E-01       4    3    1        -0.1128342009E-02      0.1889143381E-01
          0                 2           2             1    1     1       0.4501460360E-02       4    3    1         0.1128603575E-03      0.1800632281E-02
          0                 3           2             1    1     1      -0.3711936593E-03       4    3    1        -0.1015941541E-04      0.1654510207E-03
          0                 4           1             1    1     1       0.2716234715E-04      33    4    1        -0.8240824361E-06      0.1416900696E-04
          0                 5           1             1    1     1      -0.1699059162E-05       7    4    1         0.8770092563E-07      0.1066684486E-05
          0                 6           1             1    1     1       0.9157695388E-07       4    4    1        -0.6884008030E-08      0.6931488865E-07

    ------------------------------------------------
       NWT REQUIRED            6 OUTER ITERATIONS 
       AND A TOTAL OF          9 INNER ITERATIONS.
    ------------------------------------------------

 NO OUTPUT CONTROL FOR STRESS PERIOD   33   TIME STEP   24
 
 WELLS WITH REDUCED PUMPING FOR STRESS PERIOD    33 TIME STEP    24
   LAY   ROW   COL         APPL.Q          ACT.Q        GW-HEAD       CELL-BOT
     1     3    50  -0.149999E+01  -0.382233E+00   0.369598E-03   0.000000E+00
     1     5    55  -0.149999E+01  -0.291400E+00   0.313519E-03   0.000000E+00
 
 
 SOLVING FOR HEAD 
                                                   Max.-Head-Change                         Max.-Flux-Residual
  Residual-Control   Outer-Iter.   Inner-Iter.     Column Row Layer    Maximum-Head-Change  Column Row Layer    Maximum-Flux-Residual          L2-NORM 
          0                 1           3             1    4     1      -0.5613310944E-01       1    5    1        -0.1162819992E-02      0.1936294144E-01
          0                 2           2             1    1     1       0.5084371754E-02       1    5    1         0.1162919266E-03      0.1844763211E-02
          0                 3           2             1    1     1      -0.4192884461E-03       1    5    1        -0.1046687144E-04      0.1690390571E-03
          0                 4           1             1    1     1       0.3064495246E-04       1    5    1         0.8383887824E-06      0.1444882891E-04
          0                 5           1             1    1     1      -0.1897609240E-05       9    4    1         0.8964552123E-07      0.1082450756E-05
          0                 6           1             1    1     1       0.1010380200E-06       2    4    1        -0.7060727114E-08      0.7015155052E-07

    ------------------------------------------------
       NWT REQUIRED            6 OUTER ITERATIONS 
       AND A TOTAL OF         10 INNER ITERATIONS.
    ------------------------------------------------

 NO OUTPUT CONTROL FOR STRESS PERIOD   33   TIME STEP   25
 
 WELLS WITH REDUCED PUMPING FOR STRESS PERIOD    33 TIME STEP    25
   LAY   ROW   COL         APPL.Q          ACT.Q        GW-HEAD       CELL-BOT
     1     3    50  -0.150002E+01  -0.381851E+00   0.369379E-03   0.000000E+00
     1     5    55  -0.150002E+01  -0.291063E+00   0.313312E-03   0.000000E+00
 
 
 SOLVING FOR HEAD 
                                                   Max.-Head-Change                         Max.-Flux-Residual
  Residual-Control   Outer-Iter.   Inner-Iter.     Column Row Layer    Maximum-Head-Change  Column Row Layer    Maximum-Flux-Residual          L2-NORM 
          0                 1           3             1    4     1      -0.6294363581E-01       1    5    1        -0.1188151317E-02      0.1984713552E-01
          0                 2           2             1    1     1       0.5723616798E-02       1    5    1         0.1188255162E-03      0.1890910368E-02
          0                 3           2             1    1     1      -0.4721071245E-03       1    3    1        -0.1069496651E-04      0.1728758991E-03
          0                 4           1             1    1     1       0.3446324816E-04       1    3    1         0.8566580938E-06      0.1474730588E-04
          0                 5           1             1    1     1      -0.2105483490E-05       9    4    1         0.9098700104E-07      0.1097684278E-05
          0                 6           1             1    1     1       0.1103550783E-06       9    4    1        -0.7136865321E-08      0.7085478623E-07

    ------------------------------------------------
       NWT REQUIRED            6 OUTER ITERATIONS 
       AND A TOTAL OF         10 INNER ITERATIONS.
    ------------------------------------------------

 NO OUTPUT CONTROL FOR STRESS PERIOD   33   TIME STEP   26
 
 WELLS WITH REDUCED PUMPING FOR STRESS PERIOD    33 TIME STEP    26
   LAY   ROW   COL         APPL.Q          ACT.Q        GW-HEAD       CELL-BOT
     1     3    50  -0.150001E+01  -0.381431E+00   0.369144E-03   0.000000E+00
     1     5    55  -0.150001E+01  -0.290692E+00   0.313087E-03   0.000000E+00
 
 
 SOLVING FOR HEAD 
                                                   Max.-Head-Change                         Max.-Flux-Residual
  Residual-Control   Outer-Iter.   Inner-Iter.     Column Row Layer    Maximum-Head-Change  Column Row Layer    Maximum-Flux-Residual          L2-NORM 
          0                 1           3             1    4     1      -0.7035322734E-01       1    5    1        -0.1212262143E-02      0.2031482601E-01
          0                 2           2             1    1     1       0.6423876141E-02       1    5    1         0.1212351633E-03      0.1937858407E-02
          0                 3           2             1    1     1      -0.5302252129E-03       1    5    1        -0.1091192302E-04      0.1768926011E-03
          0                 4           1             1    1     1       0.3867204810E-04       1    5    1         0.8740350630E-06      0.1506066026E-04
          0                 5           1             1    1     1      -0.2324542021E-05       9    4    1         0.9204278584E-07      0.1111520131E-05
          0                 6           1             1    1     1       0.1195369258E-06       9    4    1        -0.7213131425E-08      0.7134596824E-07

    ------------------------------------------------
       NWT REQUIRED            6 OUTER ITERATIONS 
       AND A TOTAL OF         10 INNER ITERATIONS.
    ------------------------------------------------

 NO OUTPUT CONTROL FOR STRESS PERIOD   33   TIME STEP   27
 
 WELLS WITH REDUCED PUMPING FOR STRESS PERIOD    33 TIME STEP    27
   LAY   ROW   COL         APPL.Q          ACT.Q        GW-HEAD       CELL-BOT
     1     3    50  -0.150000E+01  -0.380968E+00   0.368884E-03   0.000000E+00
     1     5    55  -0.150000E+01  -0.290286E+00   0.312840E-03   0.000000E+00
 
 
 SOLVING FOR HEAD 
                                                   Max.-Head-Change                         Max.-Flux-Residual
  Residual-Control   Outer-Iter.   Inner-Iter.     Column Row Layer    Maximum-Head-Change  Column Row Layer    Maximum-Flux-Residual          L2-NORM 
          0                 1           3             1    1     1      -0.7715051588E-01       1    5    1        -0.1232886826E-02      0.2066236526E-01
          0                 2           2             1    1     1       0.7095456742E-02       1    5    1         0.1232794789E-03      0.1980457740E-02
          0                 3           2             1    1     1      -0.5850999893E-03       1    5    1        -0.1109612777E-04      0.1812992002E-03
          0                 4           1             1    1     1       0.4256614295E-04       6    4    1        -0.9084215371E-06      0.1545913092E-04
          0                 5           1             1    1     1      -0.2502036322E-05       9    4    1         0.9919651234E-07      0.1131385281E-05
          0                 6           1             1    1     1       0.1257329195E-06       9    4    1        -0.7583984996E-08      0.7219644315E-07

    ------------------------------------------------
       NWT REQUIRED            6 OUTER ITERATIONS 
       AND A TOTAL OF         10 INNER ITERATIONS.
    ------------------------------------------------

 NO OUTPUT CONTROL FOR STRESS PERIOD   33   TIME STEP   28
 
 WELLS WITH REDUCED PUMPING FOR STRESS PERIOD    33 TIME STEP    28
   LAY   ROW   COL         APPL.Q          ACT.Q        GW-HEAD       CELL-BOT
     1     3    50  -0.149997E+01  -0.380458E+00   0.368601E-03   0.000000E+00
     1     5    55  -0.149997E+01  -0.289839E+00   0.312571E-03   0.000000E+00
 
 
 SOLVING FOR HEAD 
                                                   Max.-Head-Change                         Max.-Flux-Residual
  Residual-Control   Outer-Iter.   Inner-Iter.     Column Row Layer    Maximum-Head-Change  Column Row Layer    Maximum-Flux-Residual          L2-NORM 
          0                 1           3             1    1     1      -0.8477971609E-01       1    5    1        -0.1232677482E-02      0.2089831758E-01
          0                 2           2             1    1     1       0.7789004800E-02       1    5    1         0.1232548287E-03      0.2009242164E-02
          0                 3           2             1    1     1      -0.6413130823E-03       1    5    1        -0.1109401864E-04      0.1842504932E-03
          0                 4           1             1    1     1       0.4649372216E-04       1    4    1        -0.9263546694E-06      0.1572376237E-04
          0                 5           1             1    1     1      -0.2653980563E-05       9    4    1         0.1015728230E-06      0.1138638361E-05
          0                 6           1             1    1     1       0.1294712073E-06       9    4    1        -0.7677741110E-08      0.7220464394E-07

    ------------------------------------------------
       NWT REQUIRED            6 OUTER ITERATIONS 
       AND A TOTAL OF         10 INNER ITERATIONS.
    ------------------------------------------------

 NO OUTPUT CONTROL FOR STRESS PERIOD   33   TIME STEP   29
 
 WELLS WITH REDUCED PUMPING FOR STRESS PERIOD    33 TIME STEP    29
   LAY   ROW   COL         APPL.Q          ACT.Q        GW-HEAD       CELL-BOT
     1     3    50  -0.150002E+01  -0.379893E+00   0.368276E-03   0.000000E+00
     1     5    55  -0.150002E+01  -0.289347E+00   0.312266E-03   0.000000E+00
 
 
 SOLVING FOR HEAD 
                                                   Max.-Head-Change                         Max.-Flux-Residual
  Residual-Control   Outer-Iter.   Inner-Iter.     Column Row Layer    Maximum-Head-Change  Column Row Layer    Maximum-Flux-Residual          L2-NORM 
          0                 1           3             1    1     1      -0.9308099611E-01       1    5    1        -0.1229426029E-02      0.2105427587E-01
          0                 2           2             1    1     1       0.8542000757E-02       1    5    1         0.1229295094E-03      0.2028291001E-02
          0                 3           2             1    1     1      -0.7021313033E-03       1    5    1        -0.1106483414E-04      0.1862116634E-03
          0                 4           1             1    1     1       0.5069934926E-04      28    4    1        -0.9403280146E-06      0.1590937523E-04
          0                 5           1             1    1     1      -0.2788310954E-05       9    4    1         0.1038186284E-06      0.1139024530E-05
          0                 6           1             1    1     1       0.1311421575E-06       9    4    1        -0.7741746799E-08      0.7187327995E-07

    ------------------------------------------------
       NWT REQUIRED            6 OUTER ITERATIONS 
       AND A TOTAL OF         10 INNER ITERATIONS.
    ------------------------------------------------

 NO OUTPUT CONTROL FOR STRESS PERIOD   33   TIME STEP   30
 
 WELLS WITH REDUCED PUMPING FOR STRESS PERIOD    33 TIME STEP    30
   LAY   ROW   COL         APPL.Q          ACT.Q        GW-HEAD       CELL-BOT
     1     3    50  -0.149999E+01  -0.379235E+00   0.367908E-03   0.000000E+00
     1     5    55  -0.149999E+01  -0.288781E+00   0.311924E-03   0.000000E+00
 



 STREAM LISTING     PERIOD     33   STEP       30

 LAYER ROW COL. STREAM  RCH.   FLOW INTO    STREAM     FLOW OUT OF   OVRLND.    DIRECT     STREAM      STREAM      STREAM     STREAM  STREAMBED   FLOW TO   CHNG. UNSAT. 
                SEG.NO.  NO.   STRM. RCH.    LOSS       STRM. RCH.   RUNOFF     PRECIP       ET         HEAD        DEPTH      WIDTH  CONDCTNC.   WAT. TAB.

   1    4    1     1     1    2.0700E+00  9.1316E-04   2.0691E+00  0.000E+00  0.000E+00  0.000E+00  1.40918E+02  1.068E+00  3.091E+00  5.822E-04  9.094E-04  3.913E-06
   1    4    2     1     2    2.0691E+00  9.1289E-04   2.0682E+00  0.000E+00  0.000E+00  0.000E+00  1.40618E+02  1.068E+00  3.090E+00  5.822E-04  9.091E-04  3.973E-06
   1    4    3     1     3    2.0682E+00  9.1263E-04   2.0673E+00  0.000E+00  0.000E+00  0.000E+00  1.40318E+02  1.068E+00  3.090E+00  5.821E-04  9.088E-04  4.012E-06
   1    4    4     1     4    2.0673E+00  9.1236E-04   2.0663E+00  0.000E+00  0.000E+00  0.000E+00  1.40018E+02  1.068E+00  3.090E+00  5.820E-04  9.085E-04  4.029E-06
   1    4    5     1     5    2.0663E+00  9.1210E-04   2.0654E+00  0.000E+00  0.000E+00  0.000E+00  1.39717E+02  1.067E+00  3.090E+00  5.819E-04  9.082E-04  4.032E-06
   1    4    6     1     6    2.0654E+00  9.1183E-04   2.0645E+00  0.000E+00  0.000E+00  0.000E+00  1.39417E+02  1.067E+00  3.089E+00  5.819E-04  9.079E-04  4.016E-06
   1    4    7     1     7    2.0645E+00  9.1157E-04   2.0636E+00  0.000E+00  0.000E+00  0.000E+00  1.39117E+02  1.067E+00  3.089E+00  5.818E-04  9.077E-04  3.987E-06
   1    4    8     1     8    2.0636E+00  9.1130E-04   2.0627E+00  0.000E+00  0.000E+00  0.000E+00  1.38817E+02  1.067E+00  3.089E+00  5.817E-04  9.075E-04  3.942E-06
   1    4    9     1     9    2.0627E+00  9.1104E-04   2.0618E+00  0.000E+00  0.000E+00  0.000E+00  1.38516E+02  1.066E+00  3.088E+00  5.816E-04  9.073E-04  3.879E-06
   1    4   10     1    10    2.0618E+00  9.1078E-04   2.0609E+00  0.000E+00  0.000E+00  0.000E+00  1.38216E+02  1.066E+00  3.088E+00  5.815E-04  9.071E-04  3.802E-06
   1    4   11     1    11    2.0609E+00  9.1051E-04   2.0600E+00  0.000E+00  0.000E+00  0.000E+00  1.37916E+02  1.066E+00  3.088E+00  5.815E-04  9.069E-04  3.705E-06
   1    4   12     1    12    2.0600E+00  9.1025E-04   2.0591E+00  0.000E+00  0.000E+00  0.000E+00  1.37616E+02  1.066E+00  3.088E+00  5.814E-04  9.068E-04  3.588E-06
   1    4   13     1    13    2.0591E+00  9.0998E-04   2.0581E+00  0.000E+00  0.000E+00  0.000E+00  1.37315E+02  1.065E+00  3.087E+00  5.813E-04  9.067E-04  3.452E-06
   1    4   14     1    14    2.0581E+00  9.0972E-04   2.0572E+00  0.000E+00  0.000E+00  0.000E+00  1.37015E+02  1.065E+00  3.087E+00  5.812E-04  9.065E-04  3.292E-06
   1    4   15     1    15    2.0572E+00  9.0945E-04   2.0563E+00  0.000E+00  0.000E+00  0.000E+00  1.36715E+02  1.065E+00  3.087E+00  5.811E-04  9.065E-04  3.110E-06
   1    4   16     1    16    2.0563E+00  9.0919E-04   2.0554E+00  0.000E+00  0.000E+00  0.000E+00  1.36415E+02  1.065E+00  3.086E+00  5.811E-04  9.064E-04  2.904E-06
   1    4   17     1    17    2.0554E+00  9.0892E-04   2.0545E+00  0.000E+00  0.000E+00  0.000E+00  1.36114E+02  1.064E+00  3.086E+00  5.810E-04  9.064E-04  2.670E-06
   1    4   18     1    18    2.0545E+00  9.0866E-04   2.0536E+00  0.000E+00  0.000E+00  0.000E+00  1.35814E+02  1.064E+00  3.086E+00  5.809E-04  9.064E-04  2.409E-06
   1    4   19     1    19    2.0536E+00  9.0840E-04   2.0527E+00  0.000E+00  0.000E+00  0.000E+00  1.35514E+02  1.064E+00  3.085E+00  5.808E-04  9.064E-04  2.118E-06
   1    4   20     1    20    2.0527E+00  9.0813E-04   2.0518E+00  0.000E+00  0.000E+00  0.000E+00  1.35214E+02  1.064E+00  3.085E+00  5.807E-04  9.065E-04  1.794E-06
   1    4   21     1    21    2.0518E+00  9.0787E-04   2.0509E+00  0.000E+00  0.000E+00  0.000E+00  1.34913E+02  1.063E+00  3.085E+00  5.807E-04  9.065E-04  1.441E-06
   1    4   22     1    22    2.0509E+00  9.0761E-04   2.0500E+00  0.000E+00  0.000E+00  0.000E+00  1.34613E+02  1.063E+00  3.085E+00  5.806E-04  9.067E-04  1.055E-06
   1    4   23     1    23    2.0500E+00  9.0734E-04   2.0491E+00  0.000E+00  0.000E+00  0.000E+00  1.34313E+02  1.063E+00  3.084E+00  5.805E-04  9.068E-04  6.406E-07
   1    4   24     1    24    2.0491E+00  9.0708E-04   2.0482E+00  0.000E+00  0.000E+00  0.000E+00  1.34013E+02  1.063E+00  3.084E+00  5.804E-04  9.070E-04  1.935E-07
   1    4   25     1    25    2.0482E+00  9.0681E-04   2.0473E+00  0.000E+00  0.000E+00  0.000E+00  1.33713E+02  1.063E+00  3.084E+00  5.803E-04  9.072E-04 -2.805E-07
   1    4   26     1    26    2.0473E+00  9.0655E-04   2.0463E+00  0.000E+00  0.000E+00  0.000E+00  1.33412E+02  1.062E+00  3.083E+00  5.803E-04  9.074E-04 -7.775E-07
   1    4   27     1    27    2.0463E+00  9.0629E-04   2.0454E+00  0.000E+00  0.000E+00  0.000E+00  1.33112E+02  1.062E+00  3.083E+00  5.802E-04  9.183E-04 -1.189E-05
   1    4   28     1    28    2.0454E+00  9.0602E-04   2.0445E+00  0.000E+00  0.000E+00  0.000E+00  1.32812E+02  1.062E+00  3.083E+00  5.801E-04  9.221E-04 -1.599E-05
   1    4   29     1    29    2.0445E+00  9.0576E-04   2.0436E+00  0.000E+00  0.000E+00  0.000E+00  1.32512E+02  1.062E+00  3.083E+00  5.800E-04  8.727E-04  3.313E-05
   1    4   30     1    30    2.0436E+00  9.0550E-04   2.0427E+00  0.000E+00  0.000E+00  0.000E+00  1.32211E+02  1.061E+00  3.082E+00  5.800E-04  8.731E-04  3.254E-05
   1    4   31     1    31    2.0427E+00  9.0523E-04   2.0418E+00  0.000E+00  0.000E+00  0.000E+00  1.31911E+02  1.061E+00  3.082E+00  5.799E-04  8.735E-04  3.186E-05
   1    4   32     1    32    2.0418E+00  9.0497E-04   2.0409E+00  0.000E+00  0.000E+00  0.000E+00  1.31611E+02  1.061E+00  3.082E+00  5.798E-04  8.740E-04  3.110E-05
   1    4   33     1    33    2.0409E+00  9.0471E-04   2.0400E+00  0.000E+00  0.000E+00  0.000E+00  1.31311E+02  1.061E+00  3.081E+00  5.797E-04  8.746E-04  3.023E-05
   1    4   34     1    34    2.0400E+00  9.0444E-04   2.0391E+00  0.000E+00  0.000E+00  0.000E+00  1.31010E+02  1.060E+00  3.081E+00  5.796E-04  9.179E-04 -1.341E-05
   1    4   35     1    35    2.0391E+00  9.0418E-04   2.0382E+00  0.000E+00  0.000E+00  0.000E+00  1.30710E+02  1.060E+00  3.081E+00  5.796E-04  9.581E-04 -5.379E-05
   1    4   36     1    36    2.0382E+00  9.0392E-04   2.0373E+00  0.000E+00  0.000E+00  0.000E+00  1.30410E+02  1.060E+00  3.081E+00  5.795E-04  9.987E-04 -9.464E-05
   1    4   37     1    37    2.0373E+00  9.0366E-04   2.0364E+00  0.000E+00  0.000E+00  0.000E+00  1.30110E+02  1.060E+00  3.080E+00  5.794E-04  1.042E-03 -1.382E-04
   1    4   38     1    38    2.0364E+00  9.0339E-04   2.0355E+00  0.000E+00  0.000E+00  0.000E+00  1.29809E+02  1.059E+00  3.080E+00  5.793E-04  1.075E-03 -1.716E-04
   1    4   39     1    39    2.0355E+00  9.0313E-04   2.0346E+00  0.000E+00  0.000E+00  0.000E+00  1.29509E+02  1.059E+00  3.080E+00  5.792E-04  1.120E-03 -2.164E-04
   1    4   40     1    40    2.0346E+00  9.0287E-04   2.0337E+00  0.000E+00  0.000E+00  0.000E+00  1.29209E+02  1.059E+00  3.079E+00  5.792E-04  1.168E-03 -2.645E-04
   1    4   41     1    41    2.0337E+00  9.0260E-04   2.0328E+00  0.000E+00  0.000E+00  0.000E+00  1.28909E+02  1.059E+00  3.079E+00  5.791E-04  1.245E-03 -3.422E-04
   1    4   42     1    42    2.0328E+00  9.0234E-04   2.0319E+00  0.000E+00  0.000E+00  0.000E+00  1.28608E+02  1.058E+00  3.079E+00  5.790E-04  1.311E-03 -4.082E-04
   1    4   43     1    43    2.0319E+00  9.0208E-04   2.0310E+00  0.000E+00  0.000E+00  0.000E+00  1.28308E+02  1.058E+00  3.079E+00  5.789E-04  1.365E-03 -4.624E-04
   1    4   44     1    44    2.0310E+00  9.0182E-04   2.0301E+00  0.000E+00  0.000E+00  0.000E+00  1.28008E+02  1.058E+00  3.078E+00  5.789E-04  1.453E-03 -5.508E-04
   1    4   45     1    45    2.0301E+00  9.0155E-04   2.0292E+00  0.000E+00  0.000E+00  0.000E+00  1.27708E+02  1.058E+00  3.078E+00  5.788E-04  1.514E-03 -6.122E-04
   1    4   46     1    46    2.0292E+00  9.0129E-04   2.0283E+00  0.000E+00  0.000E+00  0.000E+00  1.27407E+02  1.057E+00  3.078E+00  5.787E-04  1.617E-03 -7.157E-04
   1    4   47     1    47    2.0283E+00  9.0103E-04   2.0274E+00  0.000E+00  0.000E+00  0.000E+00  1.27107E+02  1.057E+00  3.077E+00  5.786E-04  1.785E-03 -8.835E-04
   1    4   48     1    48    2.0274E+00  9.0077E-04   2.0265E+00  0.000E+00  0.000E+00  0.000E+00  1.26807E+02  1.057E+00  3.077E+00  5.785E-04  1.910E-03 -1.009E-03
   1    4   49     1    49    2.0265E+00  9.0051E-04   2.0256E+00  0.000E+00  0.000E+00  0.000E+00  1.26507E+02  1.057E+00  3.077E+00  5.785E-04  2.068E-03 -1.168E-03
   1    4   50     1    50    2.0256E+00  9.0024E-04   2.0247E+00  0.000E+00  0.000E+00  0.000E+00  1.26206E+02  1.056E+00  3.077E+00  5.784E-04  2.135E-03 -1.235E-03
   1    4   51     1    51    2.0247E+00  8.9998E-04   2.0238E+00  0.000E+00  0.000E+00  0.000E+00  1.25906E+02  1.056E+00  3.076E+00  5.783E-04  2.134E-03 -1.234E-03
   1    4   52     1    52    2.0238E+00  8.9972E-04   2.0229E+00  0.000E+00  0.000E+00  0.000E+00  1.25606E+02  1.056E+00  3.076E+00  5.782E-04  2.134E-03 -1.234E-03
   1    4   53     1    53    2.0229E+00  8.9946E-04   2.0220E+00  0.000E+00  0.000E+00  0.000E+00  1.25306E+02  1.056E+00  3.076E+00  5.781E-04  2.133E-03 -1.234E-03
   1    4   54     1    54    2.0220E+00  8.9920E-04   2.0211E+00  0.000E+00  0.000E+00  0.000E+00  1.25006E+02  1.056E+00  3.075E+00  5.781E-04  2.133E-03 -1.234E-03
   1    4   55     1    55    2.0211E+00  8.9893E-04   2.0202E+00  0.000E+00  0.000E+00  0.000E+00  1.24705E+02  1.055E+00  3.075E+00  5.780E-04  2.133E-03 -1.234E-03
   1    4   56     1    56    2.0202E+00  8.9867E-04   2.0193E+00  0.000E+00  0.000E+00  0.000E+00  1.24405E+02  1.055E+00  3.075E+00  5.779E-04  2.072E-03 -1.173E-03
   1    4   57     1    57    2.0193E+00  8.9841E-04   2.0184E+00  0.000E+00  0.000E+00  0.000E+00  1.24105E+02  1.055E+00  3.074E+00  5.778E-04  1.934E-03 -1.035E-03
   1    4   58     1    58    2.0184E+00  8.9815E-04   2.0175E+00  0.000E+00  0.000E+00  0.000E+00  1.23805E+02  1.055E+00  3.074E+00  5.778E-04  1.814E-03 -9.155E-04
   1    4   59     1    59    2.0175E+00  8.9789E-04   2.0166E+00  0.000E+00  0.000E+00  0.000E+00  1.23504E+02  1.054E+00  3.074E+00  5.777E-04  1.635E-03 -7.367E-04
   1    4   60     1    60    2.0166E+00  8.9763E-04   2.0157E+00  0.000E+00  0.000E+00  0.000E+00  1.23204E+02  1.054E+00  3.074E+00  5.776E-04  1.552E-03 -6.544E-04
   1    4   61     1    61    2.0157E+00  8.9736E-04   2.0148E+00  0.000E+00  0.000E+00  0.000E+00  1.22904E+02  1.054E+00  3.073E+00  5.775E-04  1.471E-03 -5.732E-04
   1    4   62     1    62    2.0148E+00  8.9710E-04   2.0139E+00  0.000E+00  0.000E+00  0.000E+00  1.22604E+02  1.054E+00  3.073E+00  5.774E-04  1.403E-03 -5.057E-04
   1    4   63     1    63    2.0139E+00  8.9684E-04   2.0130E+00  0.000E+00  0.000E+00  0.000E+00  1.22303E+02  1.053E+00  3.073E+00  5.774E-04  1.330E-03 -4.330E-04
   1    4   64     1    64    2.0130E+00  8.9658E-04   2.0121E+00  0.000E+00  0.000E+00  0.000E+00  1.22003E+02  1.053E+00  3.072E+00  5.773E-04  1.278E-03 -3.817E-04
   1    4   65     1    65    2.0121E+00  8.9632E-04   2.0112E+00  0.000E+00  0.000E+00  0.000E+00  1.21703E+02  1.053E+00  3.072E+00  5.772E-04  1.215E-03 -3.191E-04
   1    4   66     1    66    2.0112E+00  8.9606E-04   2.0103E+00  0.000E+00  0.000E+00  0.000E+00  1.21403E+02  1.053E+00  3.072E+00  5.771E-04  1.137E-03 -2.411E-04
   1    4   67     1    67    2.0103E+00  8.9580E-04   2.0094E+00  0.000E+00  0.000E+00  0.000E+00  1.21102E+02  1.052E+00  3.072E+00  5.770E-04  1.090E-03 -1.939E-04
   1    4   68     1    68    2.0094E+00  8.9554E-04   2.0085E+00  0.000E+00  0.000E+00  0.000E+00  1.20802E+02  1.052E+00  3.071E+00  5.770E-04  1.050E-03 -1.541E-04
   1    4   69     1    69    2.0085E+00  8.9528E-04   2.0076E+00  0.000E+00  0.000E+00  0.000E+00  1.20502E+02  1.052E+00  3.071E+00  5.769E-04  1.009E-03 -1.140E-04
   1    4   70     1    70    2.0076E+00  8.9501E-04   2.0067E+00  0.000E+00  0.000E+00  0.000E+00  1.20202E+02  1.052E+00  3.071E+00  5.768E-04  9.648E-04 -6.977E-05
   1    4   71     1    71    2.0067E+00  8.9475E-04   2.0058E+00  0.000E+00  0.000E+00  0.000E+00  1.19901E+02  1.051E+00  3.070E+00  5.767E-04  9.226E-04 -2.780E-05
   1    4   72     1    72    2.0058E+00  8.9449E-04   2.0049E+00  0.000E+00  0.000E+00  0.000E+00  1.19601E+02  1.051E+00  3.070E+00  5.766E-04  8.715E-04  2.307E-05
   1    4   73     1    73    2.0049E+00  8.9423E-04   2.0040E+00  0.000E+00  0.000E+00  0.000E+00  1.19301E+02  1.051E+00  3.070E+00  5.766E-04  8.714E-04  2.287E-05
   1    4   74     1    74    2.0040E+00  8.9397E-04   2.0031E+00  0.000E+00  0.000E+00  0.000E+00  1.19001E+02  1.051E+00  3.070E+00  5.765E-04  8.715E-04  2.248E-05
   1    4   75     1    75    2.0031E+00  8.9371E-04   2.0022E+00  0.000E+00  0.000E+00  0.000E+00  1.18700E+02  1.050E+00  3.069E+00  5.764E-04  8.718E-04  2.195E-05
   1    4   76     1    76    2.0022E+00  8.9345E-04   2.0014E+00  0.000E+00  0.000E+00  0.000E+00  1.18400E+02  1.050E+00  3.069E+00  5.763E-04  8.722E-04  2.131E-05
   1    4   77     1    77    2.0014E+00  8.9319E-04   2.0005E+00  0.000E+00  0.000E+00  0.000E+00  1.18100E+02  1.050E+00  3.069E+00  5.763E-04  8.726E-04  2.064E-05
   1    4   78     1    78    2.0005E+00  8.9293E-04   1.9996E+00  0.000E+00  0.000E+00  0.000E+00  1.17800E+02  1.050E+00  3.068E+00  5.762E-04  9.376E-04 -4.460E-05
   1    4   79     1    79    1.9996E+00  8.9267E-04   1.9987E+00  0.000E+00  0.000E+00  0.000E+00  1.17500E+02  1.050E+00  3.068E+00  5.761E-04  9.169E-04 -2.415E-05
   1    4   80     1    80    1.9987E+00  8.9241E-04   1.9978E+00  0.000E+00  0.000E+00  0.000E+00  1.17199E+02  1.049E+00  3.068E+00  5.760E-04  9.090E-04 -1.658E-05
   1    4   81     1    81    1.9978E+00  8.9215E-04   1.9969E+00  0.000E+00  0.000E+00  0.000E+00  1.16899E+02  1.049E+00  3.068E+00  5.759E-04  9.099E-04 -1.769E-05
   1    4   82     1    82    1.9969E+00  8.9189E-04   1.9960E+00  0.000E+00  0.000E+00  0.000E+00  1.16599E+02  1.049E+00  3.067E+00  5.759E-04  9.107E-04 -1.885E-05
   1    4   83     1    83    1.9960E+00  8.9163E-04   1.9951E+00  0.000E+00  0.000E+00  0.000E+00  1.16299E+02  1.049E+00  3.067E+00  5.758E-04  9.117E-04 -2.009E-05
   1    4   84     1    84    1.9951E+00  8.9137E-04   1.9942E+00  0.000E+00  0.000E+00  0.000E+00  1.15998E+02  1.048E+00  3.067E+00  5.757E-04  9.128E-04 -2.142E-05
   1    4   85     1    85    1.9942E+00  8.9111E-04   1.9933E+00  0.000E+00  0.000E+00  0.000E+00  1.15698E+02  1.048E+00  3.066E+00  5.756E-04  9.139E-04 -2.283E-05
   1    4   86     1    86    1.9933E+00  8.9085E-04   1.9924E+00  0.000E+00  0.000E+00  0.000E+00  1.15398E+02  1.048E+00  3.066E+00  5.756E-04  9.152E-04 -2.432E-05
   1    4   87     1    87    1.9924E+00  8.9059E-04   1.9915E+00  0.000E+00  0.000E+00  0.000E+00  1.15098E+02  1.048E+00  3.066E+00  5.755E-04  9.165E-04 -2.590E-05
   1    4   88     1    88    1.9915E+00  8.9033E-04   1.9906E+00  0.000E+00  0.000E+00  0.000E+00  1.14797E+02  1.047E+00  3.066E+00  5.754E-04  9.179E-04 -2.756E-05
   1    4   89     1    89    1.9906E+00  8.9007E-04   1.9898E+00  0.000E+00  0.000E+00  0.000E+00  1.14497E+02  1.047E+00  3.065E+00  5.753E-04  9.194E-04 -2.931E-05
   1    4   90     1    90    1.9898E+00  8.8981E-04   1.9889E+00  0.000E+00  0.000E+00  0.000E+00  1.14197E+02  1.047E+00  3.065E+00  5.752E-04  9.210E-04 -3.116E-05
   1    4   91     1    91    1.9889E+00  8.8955E-04   1.9880E+00  0.000E+00  0.000E+00  0.000E+00  1.13897E+02  1.047E+00  3.065E+00  5.752E-04  9.227E-04 -3.312E-05
   1    4   92     1    92    1.9880E+00  8.8929E-04   1.9871E+00  0.000E+00  0.000E+00  0.000E+00  1.13596E+02  1.046E+00  3.064E+00  5.751E-04  9.245E-04 -3.522E-05
   1    4   93     1    93    1.9871E+00  8.8903E-04   1.9862E+00  0.000E+00  0.000E+00  0.000E+00  1.13296E+02  1.046E+00  3.064E+00  5.750E-04  9.265E-04 -3.746E-05
   1    4   94     1    94    1.9862E+00  8.8877E-04   1.9853E+00  0.000E+00  0.000E+00  0.000E+00  1.12996E+02  1.046E+00  3.064E+00  5.749E-04  9.287E-04 -3.990E-05
   1    4   95     1    95    1.9853E+00  8.8851E-04   1.9844E+00  0.000E+00  0.000E+00  0.000E+00  1.12696E+02  1.046E+00  3.064E+00  5.748E-04  9.310E-04 -4.253E-05
   1    4   96     1    96    1.9844E+00  8.8825E-04   1.9835E+00  0.000E+00  0.000E+00  0.000E+00  1.12395E+02  1.045E+00  3.063E+00  5.748E-04  9.336E-04 -4.538E-05
   1    4   97     1    97    1.9835E+00  8.8800E-04   1.9826E+00  0.000E+00  0.000E+00  0.000E+00  1.12095E+02  1.045E+00  3.063E+00  5.747E-04  9.365E-04 -4.846E-05
   1    4   98     1    98    1.9826E+00  8.8774E-04   1.9818E+00  0.000E+00  0.000E+00  0.000E+00  1.11795E+02  1.045E+00  3.063E+00  5.746E-04  9.395E-04 -5.172E-05
   1    4   99     1    99    1.9818E+00  8.8748E-04   1.9809E+00  0.000E+00  0.000E+00  0.000E+00  1.11495E+02  1.045E+00  3.062E+00  5.745E-04  9.426E-04 -5.513E-05
   1    4  100     1   100    1.9809E+00  8.8722E-04   1.9800E+00  0.000E+00  0.000E+00  0.000E+00  1.11194E+02  1.044E+00  3.062E+00  5.745E-04  9.458E-04 -5.860E-05



1
  VOLUMETRIC BUDGET FOR UNSATURATED ZONE BENEATH STREAMS AT END OF TIME STEP    30 STRESS PERIOD  33
  ------------------------------------------------------------------------------------------------

    CUMULATIVE VOLUMES             L**3    RATES FOR THIS TIME STEP         L**3/T
    ------------------                     ------------------------


          STREAM LOSS =     30079612.0000            STREAM LOSS =        9.0014E-02
    CHANGE IN STORAGE =      1253836.1250      CHANGE IN STORAGE =       -2.2476E-02
       RECHARGE TO GW =     28833400.0000         RECHARGE TO GW =            0.1125

             TOTAL IN =     30079612.0000               TOTAL IN =            0.1125

            TOTAL OUT =     30087236.0000              TOTAL OUT =            0.1125

             IN - OUT =        -7624.0000               IN - OUT =       -5.9530E-06

  PERCENT DISCREPANCY =           -0.01      PERCENT DISCREPANCY =            -0.00



1
  VOLUMETRIC BUDGET FOR ENTIRE MODEL AT END OF TIME STEP   30, STRESS PERIOD  33
  ------------------------------------------------------------------------------

     CUMULATIVE VOLUMES      L**3       RATES FOR THIS TIME STEP      L**3/T
     ------------------                 ------------------------

           IN:                                      IN:
           ---                                      ---
             STORAGE     =   103349200.0000               STORAGE     =           0.5025
       CONSTANT HEAD     =           0.0000         CONSTANT HEAD     =           0.0000
               WELLS     =           0.0000                 WELLS     =           0.0000
     HEAD DEP BOUNDS     =      578662.7500       HEAD DEP BOUNDS     =       5.2994E-02
      STREAM LEAKAGE     =    28832928.0000        STREAM LEAKAGE     =           0.1125

                TOTAL IN =   132760792.0000                  TOTAL IN =           0.6680

          OUT:                                     OUT:
          ----                                     ----
             STORAGE     =     3027682.2500               STORAGE     =           0.0000
       CONSTANT HEAD     =           0.0000         CONSTANT HEAD     =           0.0000
               WELLS     =   113373776.0000                 WELLS     =           0.6680
     HEAD DEP BOUNDS     =    16359348.0000       HEAD DEP BOUNDS     =           0.0000
      STREAM LEAKAGE     =           0.0000        STREAM LEAKAGE     =           0.0000

               TOTAL OUT =   132760800.0000                 TOTAL OUT =           0.6680

                IN - OUT =          -8.0000                  IN - OUT =           0.0000

     PERCENT DISCREPANCY =          -0.00         PERCENT DISCREPANCY =           0.00






         TIME SUMMARY AT END OF TIME STEP   30 IN STRESS PERIOD   33
                    SECONDS     MINUTES      HOURS       DAYS        YEARS
                    -----------------------------------------------------------
   TIME STEP LENGTH 2.49961E+05  4166.0      69.434      2.8931     7.92080E-03
 STRESS PERIOD TIME 2.59200E+06  43200.      720.00      30.000     8.21355E-02
         TOTAL TIME 8.55360E+07 1.42560E+06  23760.      990.00      2.7105    
1
1
                            STRESS PERIOD NO.   34, LENGTH =   2592000.    
                            -----------------------------------------------

                              NUMBER OF TIME STEPS =    30

                               MULTIPLIER FOR DELT =     1.100

                            INITIAL TIME STEP SIZE =   15757.40    

 REUSING NON-PARAMETER WELLS FROM LAST STRESS PERIOD

      1 WELL 

 REUSING NON-PARAMETER GHB CELLS FROM LAST STRESS PERIOD

      7 GHB CELLS



 CLASSIFICATION & COUNT OF STREAM SEGMENTS BASED ON SOURCE OF INFLOW:

                HEADWATER     DIVERSION     RECEIVES TRIBUTARY FLOW
                ---------     ---------     -----------------------
                     1              0               0



                    INPUT DATA FOR EACH STREAM SEGMENT
 ---------------------------------------------------------------------------------------------

 SEGMENT    SEG.     INFLOW   OVERLAND   STREAM    STREAM   ICALC  OUTFLOW  DIVERSION PRIORITY
    NO.    LENGTH     RATE     RUNOFF      ET       PPT.    METH.  TO SEG.  FROM SEG.    NO.

      1  2.000E+04 3.500E-01 0.000E+00 0.000E+00 0.000E+00    2        0        0        0


         STREAMBED PROPERTIES AND STREAM DIMENSIONS

 SEGMENT     BED HYD. COND.      BED THICKNESS     ELEV.-TOP OF BED     WIDTH OF STREAM     DEPTH OF STREAM    STREAM ROUGHNESS
    No.     UPPER     LOWER     UPPER     LOWER     UPPER     LOWER     UPPER     LOWER     UPPER     LOWER   CHANNEL      BANK

     1  3.500E-07 3.500E-07                                                                                 3.000E-02 4.000E-02

  EIGHT POINT CROSS-SECTION DATA FOR SEGMENTS WITH ICALC = 2
    X VALUES X VALUES START FROM LEFT SIDE LOOKING DOWNSTREAM

     SEGMENT NO.        X1        X2        X3        X4        X5        X6        X7        X8
            1      0.000E+00 2.000E+00 4.000E+00 6.000E+00 8.000E+00 1.000E+01 1.200E+01 1.400E+01

    Z VALUES ARE RELATIVE TO STREAMBED ELEVATION

     SEGMENT NO.          Z1        Z2        Z3        Z4        Z5        Z6        Z7        Z8
            1      6.000E+00 4.500E+00 3.500E+00 0.000E+00 3.000E-01 3.500E+00 4.500E+00 6.000E+00



 
 SOLVING FOR HEAD 
                                                   Max.-Head-Change                         Max.-Flux-Residual
  Residual-Control   Outer-Iter.   Inner-Iter.     Column Row Layer    Maximum-Head-Change  Column Row Layer    Maximum-Flux-Residual          L2-NORM 
          0                 1           2             1    1     1      -0.5897826192E-02      50    3    1         0.6062330526E-01      0.7906465457E-01
          0                 2           2             1    1     1       0.5748392153E-03      50    3    1        -0.7971701798E-02      0.1039415535E-01
          0                 3           1             1    1     1      -0.5063319967E-04      50    3    1         0.6929034874E-03      0.9014607762E-03
          0                 4           1             1    1     1       0.3983188268E-05      50    3    1        -0.5569007582E-04      0.7252863611E-04
          0                 5           1             1    1     1      -0.2757944388E-06      50    3    1         0.3913763083E-05      0.5100888819E-05

    ------------------------------------------------
       NWT REQUIRED            5 OUTER ITERATIONS 
       AND A TOTAL OF          7 INNER ITERATIONS.
    ------------------------------------------------

 NO OUTPUT CONTROL FOR STRESS PERIOD   34   TIME STEP    1
 
 WELLS WITH REDUCED PUMPING FOR STRESS PERIOD    34 TIME STEP     1
   LAY   ROW   COL         APPL.Q          ACT.Q        GW-HEAD       CELL-BOT
     1     3    50  -0.126021E+01  -0.379186E+00   0.407568E-03   0.000000E+00
     1     5    55  -0.126021E+01  -0.288741E+00   0.344449E-03   0.000000E+00
 
 
 SOLVING FOR HEAD 
                                                   Max.-Head-Change                         Max.-Flux-Residual
  Residual-Control   Outer-Iter.   Inner-Iter.     Column Row Layer    Maximum-Head-Change  Column Row Layer    Maximum-Flux-Residual          L2-NORM 
          0                 1           2             1    1     1      -0.6485628016E-02       1    1    1        -0.1226840386E-02      0.2111023178E-01
          0                 2           2             1    1     1       0.6309001785E-03       1    1    1         0.1226838719E-03      0.2044685355E-02
          0                 3           1             1    1     1      -0.5547286208E-04       1    1    1        -0.1104156774E-04      0.1860207544E-03
          0                 4           1             1    1     1       0.4357223297E-05       1    1    1         0.8844295643E-06      0.1522314833E-04
          0                 5           1             1    1     1      -0.3013142338E-06       1    1    1        -0.6217454640E-07      0.1090814293E-05

    ------------------------------------------------
       NWT REQUIRED            5 OUTER ITERATIONS 
       AND A TOTAL OF          7 INNER ITERATIONS.
    ------------------------------------------------

 NO OUTPUT CONTROL FOR STRESS PERIOD   34   TIME STEP    2
 
 WELLS WITH REDUCED PUMPING FOR STRESS PERIOD    34 TIME STEP     2
   LAY   ROW   COL         APPL.Q          ACT.Q        GW-HEAD       CELL-BOT
     1     3    50  -0.126021E+01  -0.379140E+00   0.407538E-03   0.000000E+00
     1     5    55  -0.126021E+01  -0.288701E+00   0.344422E-03   0.000000E+00
 
 
 SOLVING FOR HEAD 
                                                   Max.-Head-Change                         Max.-Flux-Residual
  Residual-Control   Outer-Iter.   Inner-Iter.     Column Row Layer    Maximum-Head-Change  Column Row Layer    Maximum-Flux-Residual          L2-NORM 
          0                 1           2             1    1     1      -0.7131847797E-02       1    1    1        -0.1226682702E-02      0.2111816418E-01
          0                 2           2             1    1     1       0.6923326846E-03       1    1    1         0.1226680666E-03      0.2047007763E-02
          0                 3           1             1    1     1      -0.6075770413E-04       1    1    1        -0.1104014916E-04      0.1863705307E-03
          0                 4           1             1    1     1       0.4764210466E-05       1    1    1         0.8843158845E-06      0.1527875188E-04
          0                 5           1             1    1     1      -0.3289871058E-06       1    1    1        -0.6216654569E-07      0.1097259804E-05

    ------------------------------------------------
       NWT REQUIRED            5 OUTER ITERATIONS 
       AND A TOTAL OF          7 INNER ITERATIONS.
    ------------------------------------------------

 NO OUTPUT CONTROL FOR STRESS PERIOD   34   TIME STEP    3
 
 WELLS WITH REDUCED PUMPING FOR STRESS PERIOD    34 TIME STEP     3
   LAY   ROW   COL         APPL.Q          ACT.Q        GW-HEAD       CELL-BOT
     1     3    50  -0.125984E+01  -0.379085E+00   0.407574E-03   0.000000E+00
     1     5    55  -0.125984E+01  -0.288654E+00   0.344447E-03   0.000000E+00
 
 
 SOLVING FOR HEAD 
                                                   Max.-Head-Change                         Max.-Flux-Residual
  Residual-Control   Outer-Iter.   Inner-Iter.     Column Row Layer    Maximum-Head-Change  Column Row Layer    Maximum-Flux-Residual          L2-NORM 
          0                 1           2             1    1     1      -0.7842275487E-02       1    1    1        -0.1226508676E-02      0.2112571341E-01
          0                 2           2             1    1     1       0.7596486537E-03       1    1    1         0.1226506203E-03      0.2048039890E-02
          0                 3           1             1    1     1      -0.6652780070E-04       1    1    1        -0.1103858360E-04      0.1865844844E-03
          0                 4           1             1    1     1       0.5206881055E-05       1    1    1         0.8841904240E-06      0.1532442405E-04
          0                 5           1             1    1     1      -0.3589729987E-06       1    1    1        -0.6215773851E-07      0.1103189638E-05

    ------------------------------------------------
       NWT REQUIRED            5 OUTER ITERATIONS 
       AND A TOTAL OF          7 INNER ITERATIONS.
    ------------------------------------------------

 NO OUTPUT CONTROL FOR STRESS PERIOD   34   TIME STEP    4
 
 WELLS WITH REDUCED PUMPING FOR STRESS PERIOD    34 TIME STEP     4
   LAY   ROW   COL         APPL.Q          ACT.Q        GW-HEAD       CELL-BOT
     1     3    50  -0.126017E+01  -0.379024E+00   0.407471E-03   0.000000E+00
     1     5    55  -0.126017E+01  -0.288597E+00   0.344356E-03   0.000000E+00
 
 
 SOLVING FOR HEAD 
                                                   Max.-Head-Change                         Max.-Flux-Residual
  Residual-Control   Outer-Iter.   Inner-Iter.     Column Row Layer    Maximum-Head-Change  Column Row Layer    Maximum-Flux-Residual          L2-NORM 
          0                 1           2             1    1     1      -0.8623272182E-02       1    1    1        -0.1226317316E-02      0.2112956413E-01
          0                 2           2             1    1     1       0.8334105646E-03       1    1    1         0.1226314330E-03      0.2048852359E-02
          0                 3           1             1    1     1      -0.7282713708E-04       1    1    1        -0.1103686217E-04      0.1868010219E-03
          0                 4           1             1    1     1       0.5688227180E-05       1    1    1         0.8840524721E-06      0.1537157532E-04
          0                 5           1             1    1     1      -0.3914458732E-06       1    7    1        -0.6214803694E-07      0.1109359532E-05

    ------------------------------------------------
       NWT REQUIRED            5 OUTER ITERATIONS 
       AND A TOTAL OF          7 INNER ITERATIONS.
    ------------------------------------------------

 NO OUTPUT CONTROL FOR STRESS PERIOD   34   TIME STEP    5
 
 WELLS WITH REDUCED PUMPING FOR STRESS PERIOD    34 TIME STEP     5
   LAY   ROW   COL         APPL.Q          ACT.Q        GW-HEAD       CELL-BOT
     1     3    50  -0.126009E+01  -0.378946E+00   0.407437E-03   0.000000E+00
     1     5    55  -0.126009E+01  -0.288530E+00   0.344323E-03   0.000000E+00
 
 
 SOLVING FOR HEAD 
                                                   Max.-Head-Change                         Max.-Flux-Residual
  Residual-Control   Outer-Iter.   Inner-Iter.     Column Row Layer    Maximum-Head-Change  Column Row Layer    Maximum-Flux-Residual          L2-NORM 
          0                 1           2             1    1     1      -0.9481827875E-02       1    1    1        -0.1226107369E-02      0.2113217420E-01
          0                 2           2             1    1     1       0.9142369303E-03       1    1    1         0.1226103783E-03      0.2049267915E-02
          0                 3           1             1    1     1      -0.7970406636E-04       1    1    1        -0.1103497355E-04      0.1869924505E-03
          0                 4           1             1    1     1       0.6211527495E-05       1    1    1         0.8839010981E-06      0.1541841680E-04
          0                 5           1             1    1     1      -0.4265952745E-06       1    4    1         0.6414802556E-07      0.1115667955E-05

    ------------------------------------------------
       NWT REQUIRED            5 OUTER ITERATIONS 
       AND A TOTAL OF          7 INNER ITERATIONS.
    ------------------------------------------------

 NO OUTPUT CONTROL FOR STRESS PERIOD   34   TIME STEP    6
 
 WELLS WITH REDUCED PUMPING FOR STRESS PERIOD    34 TIME STEP     6
   LAY   ROW   COL         APPL.Q          ACT.Q        GW-HEAD       CELL-BOT
     1     3    50  -0.125993E+01  -0.378863E+00   0.407415E-03   0.000000E+00
     1     5    55  -0.125993E+01  -0.288459E+00   0.344299E-03   0.000000E+00
 
 
 SOLVING FOR HEAD 
                                                   Max.-Head-Change                         Max.-Flux-Residual
  Residual-Control   Outer-Iter.   Inner-Iter.     Column Row Layer    Maximum-Head-Change  Column Row Layer    Maximum-Flux-Residual          L2-NORM 
          0                 1           2             1    1     1      -0.1042562010E-01       1    1    1        -0.1225877337E-02      0.2113831819E-01
          0                 2           2             1    1     1       0.1002807872E-02       1    1    1         0.1225873050E-03      0.2049511008E-02
          0                 3           1             1    1     1      -0.8721178404E-04       1    1    1        -0.1103290429E-04      0.1871308610E-03
          0                 4           1             1    1     1       0.6780380683E-05       1    7    1         0.8837352539E-06      0.1545974145E-04
          0                 5           1             1    1     1      -0.4646278544E-06       1    4    1         0.6633404581E-07      0.1121717614E-05

    ------------------------------------------------
       NWT REQUIRED            5 OUTER ITERATIONS 
       AND A TOTAL OF          7 INNER ITERATIONS.
    ------------------------------------------------

 NO OUTPUT CONTROL FOR STRESS PERIOD   34   TIME STEP    7
 
 WELLS WITH REDUCED PUMPING FOR STRESS PERIOD    34 TIME STEP     7
   LAY   ROW   COL         APPL.Q          ACT.Q        GW-HEAD       CELL-BOT
     1     3    50  -0.125986E+01  -0.378764E+00   0.407366E-03   0.000000E+00
     1     5    55  -0.125986E+01  -0.288368E+00   0.344248E-03   0.000000E+00
 
 
 SOLVING FOR HEAD 
                                                   Max.-Head-Change                         Max.-Flux-Residual
  Residual-Control   Outer-Iter.   Inner-Iter.     Column Row Layer    Maximum-Head-Change  Column Row Layer    Maximum-Flux-Residual          L2-NORM 
          0                 1           2             1    1     1      -0.1146308429E-01       1    1    1        -0.1225625486E-02      0.2114204612E-01
          0                 2           2             1    1     1       0.1099871796E-02       1    1    1         0.1225620389E-03      0.2049962691E-02
          0                 3           1             1    1     1      -0.9540889643E-04       1    1    1        -0.1103063883E-04      0.1872811329E-03
          0                 4           1             1    1     1       0.7398743803E-05       1    1    1         0.8835536818E-06      0.1550214253E-04
          0                 5           1             1    1     1      -0.5057697831E-06       1    4    1         0.6846608969E-07      0.1127959891E-05

    ------------------------------------------------
       NWT REQUIRED            5 OUTER ITERATIONS 
       AND A TOTAL OF          7 INNER ITERATIONS.
    ------------------------------------------------

 NO OUTPUT CONTROL FOR STRESS PERIOD   34   TIME STEP    8
 
 WELLS WITH REDUCED PUMPING FOR STRESS PERIOD    34 TIME STEP     8
   LAY   ROW   COL         APPL.Q          ACT.Q        GW-HEAD       CELL-BOT
     1     3    50  -0.125989E+01  -0.378649E+00   0.407285E-03   0.000000E+00
     1     5    55  -0.125989E+01  -0.288269E+00   0.344176E-03   0.000000E+00
 
 
 SOLVING FOR HEAD 
                                                   Max.-Head-Change                         Max.-Flux-Residual
  Residual-Control   Outer-Iter.   Inner-Iter.     Column Row Layer    Maximum-Head-Change  Column Row Layer    Maximum-Flux-Residual          L2-NORM 
          0                 1           2             1    1     1      -0.1260348399E-01       1    1    1        -0.1225349857E-02      0.2114973108E-01
          0                 2           2             1    1     1       0.1206252050E-02       1    1    1         0.1225343824E-03      0.2050433829E-02
          0                 3           1             1    1     1      -0.1043599854E-03       1    1    1        -0.1102815952E-04      0.1874373175E-03
          0                 4           1             1    1     1       0.8070968931E-05       1    1    1         0.8833549430E-06      0.1554520021E-04
          0                 5           1             1    1     1      -0.5502686629E-06       1    4    1         0.7053789730E-07      0.1134319015E-05

    ------------------------------------------------
       NWT REQUIRED            5 OUTER ITERATIONS 
       AND A TOTAL OF          7 INNER ITERATIONS.
    ------------------------------------------------

 NO OUTPUT CONTROL FOR STRESS PERIOD   34   TIME STEP    9
 
 WELLS WITH REDUCED PUMPING FOR STRESS PERIOD    34 TIME STEP     9
   LAY   ROW   COL         APPL.Q          ACT.Q        GW-HEAD       CELL-BOT
     1     3    50  -0.125995E+01  -0.378531E+00   0.407198E-03   0.000000E+00
     1     5    55  -0.125995E+01  -0.288167E+00   0.344096E-03   0.000000E+00
 
 
 SOLVING FOR HEAD 
                                                   Max.-Head-Change                         Max.-Flux-Residual
  Residual-Control   Outer-Iter.   Inner-Iter.     Column Row Layer    Maximum-Head-Change  Column Row Layer    Maximum-Flux-Residual          L2-NORM 
          0                 1           2             1    1     1      -0.1385699533E-01       1    1    1        -0.1225048258E-02      0.2115094977E-01
          0                 2           2             1    1     1       0.1322854881E-02       1    1    1         0.1225041149E-03      0.2051043294E-02
          0                 3           2             1    1     1      -0.1141373789E-03       1    1    1        -0.1102544664E-04      0.1876148914E-03
          0                 4           1             1    1     1       0.8803015244E-05       1    7    1         0.8831374969E-06      0.1559216248E-04
          0                 5           1             1    1     1      -0.5984723098E-06       1    4    1         0.7255244938E-07      0.1140998988E-05

    ------------------------------------------------
       NWT REQUIRED            5 OUTER ITERATIONS 
       AND A TOTAL OF          8 INNER ITERATIONS.
    ------------------------------------------------

 NO OUTPUT CONTROL FOR STRESS PERIOD   34   TIME STEP   10
 
 WELLS WITH REDUCED PUMPING FOR STRESS PERIOD    34 TIME STEP    10
   LAY   ROW   COL         APPL.Q          ACT.Q        GW-HEAD       CELL-BOT
     1     3    50  -0.125989E+01  -0.378391E+00   0.407119E-03   0.000000E+00
     1     5    55  -0.125989E+01  -0.288037E+00   0.344015E-03   0.000000E+00
 
 
 SOLVING FOR HEAD 
                                                   Max.-Head-Change                         Max.-Flux-Residual
  Residual-Control   Outer-Iter.   Inner-Iter.     Column Row Layer    Maximum-Head-Change  Column Row Layer    Maximum-Flux-Residual          L2-NORM 
          0                 1           2             1    1     1      -0.1523478879E-01       1    1    1        -0.1224718258E-02      0.2115284523E-01
          0                 2           2             1    1     1       0.1450677122E-02       1    1    1         0.1224709918E-03      0.2051171235E-02
          0                 3           2             1    1     1      -0.1248181445E-03       1    1    1        -0.1102247835E-04      0.1877369248E-03
          0                 4           1             1    1     1       0.9598594772E-05       1    1    1         0.8828995632E-06      0.1563299683E-04
          0                 5           1             1    1     1      -0.6505747756E-06       1    4    1         0.7449098405E-07      0.1147292059E-05

    ------------------------------------------------
       NWT REQUIRED            5 OUTER ITERATIONS 
       AND A TOTAL OF          8 INNER ITERATIONS.
    ------------------------------------------------

 NO OUTPUT CONTROL FOR STRESS PERIOD   34   TIME STEP   11
 
 WELLS WITH REDUCED PUMPING FOR STRESS PERIOD    34 TIME STEP    11
   LAY   ROW   COL         APPL.Q          ACT.Q        GW-HEAD       CELL-BOT
     1     3    50  -0.126004E+01  -0.378232E+00   0.406989E-03   0.000000E+00
     1     5    55  -0.126004E+01  -0.287902E+00   0.343899E-03   0.000000E+00
 
 
 SOLVING FOR HEAD 
                                                   Max.-Head-Change                         Max.-Flux-Residual
  Residual-Control   Outer-Iter.   Inner-Iter.     Column Row Layer    Maximum-Head-Change  Column Row Layer    Maximum-Flux-Residual          L2-NORM 
          0                 1           2             1    1     1      -0.1674912904E-01       1    1    1        -0.1224357173E-02      0.2115981193E-01
          0                 2           2             1    1     1       0.1590815505E-02       1    1    1         0.1224347428E-03      0.2051286716E-02
          0                 3           2             1    1     1      -0.1364896791E-03       1    1    1        -0.1101923048E-04      0.1878508742E-03
          0                 4           1             1    1     1       0.1046434796E-04       1    1    1         0.8826392133E-06      0.1567277906E-04
          0                 5           1             1    1     1      -0.7069545326E-06       1    4    1         0.7635488330E-07      0.1153500545E-05

    ------------------------------------------------
       NWT REQUIRED            5 OUTER ITERATIONS 
       AND A TOTAL OF          8 INNER ITERATIONS.
    ------------------------------------------------

 NO OUTPUT CONTROL FOR STRESS PERIOD   34   TIME STEP   12
 
 WELLS WITH REDUCED PUMPING FOR STRESS PERIOD    34 TIME STEP    12
   LAY   ROW   COL         APPL.Q          ACT.Q        GW-HEAD       CELL-BOT
     1     3    50  -0.126006E+01  -0.378067E+00   0.406879E-03   0.000000E+00
     1     5    55  -0.126006E+01  -0.287759E+00   0.343798E-03   0.000000E+00
 
 
 SOLVING FOR HEAD 
                                                   Max.-Head-Change                         Max.-Flux-Residual
  Residual-Control   Outer-Iter.   Inner-Iter.     Column Row Layer    Maximum-Head-Change  Column Row Layer    Maximum-Flux-Residual          L2-NORM 
          0                 1           2             1    1     1      -0.1841347804E-01       1    1    1        -0.1223962046E-02      0.2115974333E-01
          0                 2           2             1    1     1       0.1744476229E-02       1    1    1         0.1223950703E-03      0.2051692618E-02
          0                 3           2             1    1     1      -0.1492476579E-03       1    1    1        -0.1101567645E-04      0.1879964994E-03
          0                 4           1             1    1     1       0.1140685675E-04       1    1    1         0.8823543070E-06      0.1571425384E-04
          0                 5           1             1    1     1      -0.7679751773E-06       1    4    1         0.7814011127E-07      0.1159758048E-05

    ------------------------------------------------
       NWT REQUIRED            5 OUTER ITERATIONS 
       AND A TOTAL OF          8 INNER ITERATIONS.
    ------------------------------------------------

 NO OUTPUT CONTROL FOR STRESS PERIOD   34   TIME STEP   13
 
 WELLS WITH REDUCED PUMPING FOR STRESS PERIOD    34 TIME STEP    13
   LAY   ROW   COL         APPL.Q          ACT.Q        GW-HEAD       CELL-BOT
     1     3    50  -0.126006E+01  -0.377869E+00   0.406752E-03   0.000000E+00
     1     5    55  -0.126006E+01  -0.287577E+00   0.343673E-03   0.000000E+00
 
 
 SOLVING FOR HEAD 
                                                   Max.-Head-Change                         Max.-Flux-Residual
  Residual-Control   Outer-Iter.   Inner-Iter.     Column Row Layer    Maximum-Head-Change  Column Row Layer    Maximum-Flux-Residual          L2-NORM 
          0                 1           2             1    1     1      -0.2024260748E-01       1    1    1        -0.1223529620E-02      0.2115912607E-01
          0                 2           2             1    1     1       0.1912985332E-02       1    1    1         0.1223516467E-03      0.2051611693E-02
          0                 3           2             1    1     1      -0.1631975474E-03       1    1    1        -0.1101178693E-04      0.1880772138E-03
          0                 4           1             1    1     1       0.1243339537E-04       1    7    1         0.8820424955E-06      0.1574957487E-04
          0                 5           1             1    1     1      -0.8340311281E-06       1    4    1         0.7984312234E-07      0.1165505817E-05

    ------------------------------------------------
       NWT REQUIRED            5 OUTER ITERATIONS 
       AND A TOTAL OF          8 INNER ITERATIONS.
    ------------------------------------------------

 NO OUTPUT CONTROL FOR STRESS PERIOD   34   TIME STEP   14
 
 WELLS WITH REDUCED PUMPING FOR STRESS PERIOD    34 TIME STEP    14
   LAY   ROW   COL         APPL.Q          ACT.Q        GW-HEAD       CELL-BOT
     1     3    50  -0.126003E+01  -0.377652E+00   0.406620E-03   0.000000E+00
     1     5    55  -0.126003E+01  -0.287390E+00   0.343550E-03   0.000000E+00
 
 
 SOLVING FOR HEAD 
                                                   Max.-Head-Change                         Max.-Flux-Residual
  Residual-Control   Outer-Iter.   Inner-Iter.     Column Row Layer    Maximum-Head-Change  Column Row Layer    Maximum-Flux-Residual          L2-NORM 
          0                 1           2             1    1     1      -0.2225272165E-01       1    1    1        -0.1223056314E-02      0.2115801201E-01
          0                 2           2             1    1     1       0.2097799962E-02       1    1    1         0.1223041114E-03      0.2051527349E-02
          0                 3           2             1    1     1      -0.1784555394E-03       1    1    1        -0.1100752972E-04      0.1881774571E-03
          0                 4           1             1    1     1       0.1355199390E-04       1    1    1         0.8817012116E-06      0.1578668183E-04
          0                 5           1             1    1     1      -0.9055454704E-06       1    4    1         0.8146075459E-07      0.1171253353E-05

    ------------------------------------------------
       NWT REQUIRED            5 OUTER ITERATIONS 
       AND A TOTAL OF          8 INNER ITERATIONS.
    ------------------------------------------------

 NO OUTPUT CONTROL FOR STRESS PERIOD   34   TIME STEP   15
 
 WELLS WITH REDUCED PUMPING FOR STRESS PERIOD    34 TIME STEP    15
   LAY   ROW   COL         APPL.Q          ACT.Q        GW-HEAD       CELL-BOT
     1     3    50  -0.126003E+01  -0.377427E+00   0.406477E-03   0.000000E+00
     1     5    55  -0.126003E+01  -0.287197E+00   0.343417E-03   0.000000E+00
 
 
 SOLVING FOR HEAD 
                                                   Max.-Head-Change                         Max.-Flux-Residual
  Residual-Control   Outer-Iter.   Inner-Iter.     Column Row Layer    Maximum-Head-Change  Column Row Layer    Maximum-Flux-Residual          L2-NORM 
          0                 1           2             1    1     1      -0.2446159156E-01       1    1    1        -0.1222538184E-02      0.2115578019E-01
          0                 2           2             1    1     1       0.2300520609E-02       1    1    1         0.1222520675E-03      0.2051194026E-02
          0                 3           2             1    1     1      -0.1951495572E-03       1    1    1        -0.1100286931E-04      0.1882846740E-03
          0                 4           1             1    1     1       0.1477150329E-04       1    1    1         0.8813275869E-06      0.1582780994E-04
          0                 5           1             1    1     1      -0.9829652844E-06       2    4    1         0.8300210652E-07      0.1177313058E-05

    ------------------------------------------------
       NWT REQUIRED            5 OUTER ITERATIONS 
       AND A TOTAL OF          8 INNER ITERATIONS.
    ------------------------------------------------

 NO OUTPUT CONTROL FOR STRESS PERIOD   34   TIME STEP   16
 
 WELLS WITH REDUCED PUMPING FOR STRESS PERIOD    34 TIME STEP    16
   LAY   ROW   COL         APPL.Q          ACT.Q        GW-HEAD       CELL-BOT
     1     3    50  -0.126003E+01  -0.377151E+00   0.406299E-03   0.000000E+00
     1     5    55  -0.126003E+01  -0.286946E+00   0.343245E-03   0.000000E+00
 
 
 SOLVING FOR HEAD 
                                                   Max.-Head-Change                         Max.-Flux-Residual
  Residual-Control   Outer-Iter.   Inner-Iter.     Column Row Layer    Maximum-Head-Change  Column Row Layer    Maximum-Flux-Residual          L2-NORM 
          0                 1           2             1    1     1      -0.2688870099E-01       1    1    1        -0.1221970886E-02      0.2114721440E-01
          0                 2           2             1    1     1       0.2522904375E-02       1    1    1         0.1221950781E-03      0.2050714185E-02
          0                 3           2             1    1     1      -0.2134203378E-03       1    1    1        -0.1099776662E-04      0.1883389057E-03
          0                 4           1             1    1     1       0.1610166381E-04       1    1    1         0.8809184955E-06      0.1585956906E-04
          0                 5           1             1    1     1      -0.1066754380E-05       2    4    1         0.8446478006E-07      0.1182255725E-05
          0                 6           1             1    1     1       0.6113517021E-07       2    4    1        -0.6514472517E-08      0.7587906389E-07

    ------------------------------------------------
       NWT REQUIRED            6 OUTER ITERATIONS 
       AND A TOTAL OF          9 INNER ITERATIONS.
    ------------------------------------------------

 NO OUTPUT CONTROL FOR STRESS PERIOD   34   TIME STEP   17
 
 WELLS WITH REDUCED PUMPING FOR STRESS PERIOD    34 TIME STEP    17
   LAY   ROW   COL         APPL.Q          ACT.Q        GW-HEAD       CELL-BOT
     1     3    50  -0.126005E+01  -0.376854E+00   0.406104E-03   0.000000E+00
     1     5    55  -0.126005E+01  -0.286689E+00   0.343064E-03   0.000000E+00
 
 
 SOLVING FOR HEAD 
                                                   Max.-Head-Change                         Max.-Flux-Residual
  Residual-Control   Outer-Iter.   Inner-Iter.     Column Row Layer    Maximum-Head-Change  Column Row Layer    Maximum-Flux-Residual          L2-NORM 
          0                 1           2             1    1     1      -0.2955540810E-01       1    7    1        -0.1221350549E-02      0.2113778285E-01
          0                 2           2             1    1     1       0.2766879753E-02       1    7    1         0.1221327527E-03      0.2049810371E-02
          0                 3           2             1    1     1      -0.2334226483E-03       1    7    1        -0.1099218679E-04      0.1883342365E-03
          0                 4           1             1    1     1       0.1755317597E-04       1    7    1         0.8804711480E-06      0.1588511059E-04
          0                 5           1             1    1     1      -0.1157379205E-05       2    4    1         0.8584241584E-07      0.1186441692E-05
          0                 6           1             1    1     1       0.6598293921E-07       2    4    1        -0.6645759498E-08      0.7634348331E-07

    ------------------------------------------------
       NWT REQUIRED            6 OUTER ITERATIONS 
       AND A TOTAL OF          9 INNER ITERATIONS.
    ------------------------------------------------

 NO OUTPUT CONTROL FOR STRESS PERIOD   34   TIME STEP   18
 
 WELLS WITH REDUCED PUMPING FOR STRESS PERIOD    34 TIME STEP    18
   LAY   ROW   COL         APPL.Q          ACT.Q        GW-HEAD       CELL-BOT
     1     3    50  -0.126004E+01  -0.376551E+00   0.405912E-03   0.000000E+00
     1     5    55  -0.126004E+01  -0.286425E+00   0.342885E-03   0.000000E+00
 
 
 SOLVING FOR HEAD 
                                                   Max.-Head-Change                         Max.-Flux-Residual
  Residual-Control   Outer-Iter.   Inner-Iter.     Column Row Layer    Maximum-Head-Change  Column Row Layer    Maximum-Flux-Residual          L2-NORM 
          0                 1           2             1    1     1      -0.3248508601E-01       1    7    1        -0.1220670484E-02      0.2113112147E-01
          0                 2           2             1    1     1       0.3034558450E-02       1    7    1         0.1220644193E-03      0.2048702216E-02
          0                 3           2             1    1     1      -0.2553261580E-03       1    7    1        -0.1098606964E-04      0.1883068720E-03
          0                 4           1             1    1     1       0.1913773374E-04       1    7    1         0.8799807150E-06      0.1590828196E-04
          0                 5           1             1    1     1      -0.1255286914E-05       2    4    1         0.8713422517E-07      0.1190046134E-05
          0                 6           1             1    1     1       0.7115376238E-07       2    4    1        -0.6768306804E-08      0.7674426467E-07

    ------------------------------------------------
       NWT REQUIRED            6 OUTER ITERATIONS 
       AND A TOTAL OF          9 INNER ITERATIONS.
    ------------------------------------------------

 NO OUTPUT CONTROL FOR STRESS PERIOD   34   TIME STEP   19
 
 WELLS WITH REDUCED PUMPING FOR STRESS PERIOD    34 TIME STEP    19
   LAY   ROW   COL         APPL.Q          ACT.Q        GW-HEAD       CELL-BOT
     1     3    50  -0.125997E+01  -0.376164E+00   0.405677E-03   0.000000E+00
     1     5    55  -0.125997E+01  -0.286079E+00   0.342657E-03   0.000000E+00
 
 
 SOLVING FOR HEAD 
                                                   Max.-Head-Change                         Max.-Flux-Residual
  Residual-Control   Outer-Iter.   Inner-Iter.     Column Row Layer    Maximum-Head-Change  Column Row Layer    Maximum-Flux-Residual          L2-NORM 
          0                 1           2             1    1     1      -0.3570334661E-01       1    7    1        -0.1219925129E-02      0.2111437706E-01
          0                 2           2             1    1     1       0.3328256412E-02       1    7    1         0.1219895179E-03      0.2047603839E-02
          0                 3           2             1    1     1      -0.2793172138E-03       1    7    1        -0.1097936507E-04      0.1882726977E-03
          0                 4           1             1    1     1       0.2086812540E-04       1    1    1         0.8794431707E-06      0.1592775885E-04
          0                 5           1             1    1     1      -0.1360877925E-05       2    4    1         0.8834048160E-07      0.1192746163E-05
          0                 6           1             1    1     1       0.7664527991E-07       2    4    1        -0.6881645476E-08      0.7705176176E-07

    ------------------------------------------------
       NWT REQUIRED            6 OUTER ITERATIONS 
       AND A TOTAL OF          9 INNER ITERATIONS.
    ------------------------------------------------

 NO OUTPUT CONTROL FOR STRESS PERIOD   34   TIME STEP   20
 
 WELLS WITH REDUCED PUMPING FOR STRESS PERIOD    34 TIME STEP    20
   LAY   ROW   COL         APPL.Q          ACT.Q        GW-HEAD       CELL-BOT
     1     3    50  -0.125996E+01  -0.375765E+00   0.405423E-03   0.000000E+00
     1     5    55  -0.125996E+01  -0.285734E+00   0.342421E-03   0.000000E+00
 
 
 SOLVING FOR HEAD 
                                                   Max.-Head-Change                         Max.-Flux-Residual
  Residual-Control   Outer-Iter.   Inner-Iter.     Column Row Layer    Maximum-Head-Change  Column Row Layer    Maximum-Flux-Residual          L2-NORM 
          0                 1           2             1    1     1      -0.3923821614E-01       1    7    1        -0.1219108258E-02      0.2109678942E-01
          0                 2           2             1    1     1       0.3650508603E-02       1    7    1         0.1219074220E-03      0.2045940177E-02
          0                 3           2             1    1     1      -0.3055999349E-03       1    7    1        -0.1097201704E-04      0.1881927860E-03
          0                 4           1             1    1     1       0.2275826078E-04       1    7    1         0.8788540371E-06      0.1594324626E-04
          0                 5           1             1    1     1      -0.1474462207E-05       2    4    1         0.8946145869E-07      0.1194512003E-05
          0                 6           1             1    1     1       0.8244174981E-07       2    4    1        -0.6985157341E-08      0.7725593475E-07

    ------------------------------------------------
       NWT REQUIRED            6 OUTER ITERATIONS 
       AND A TOTAL OF          9 INNER ITERATIONS.
    ------------------------------------------------

 NO OUTPUT CONTROL FOR STRESS PERIOD   34   TIME STEP   21
 
 WELLS WITH REDUCED PUMPING FOR STRESS PERIOD    34 TIME STEP    21
   LAY   ROW   COL         APPL.Q          ACT.Q        GW-HEAD       CELL-BOT
     1     3    50  -0.126000E+01  -0.375349E+00   0.405149E-03   0.000000E+00
     1     5    55  -0.126000E+01  -0.285367E+00   0.342163E-03   0.000000E+00
 
 
 SOLVING FOR HEAD 
                                                   Max.-Head-Change                         Max.-Flux-Residual
  Residual-Control   Outer-Iter.   Inner-Iter.     Column Row Layer    Maximum-Head-Change  Column Row Layer    Maximum-Flux-Residual          L2-NORM 
          0                 1           2             1    1     1      -0.4312034445E-01       1    7    1        -0.1218212868E-02      0.2107593604E-01
          0                 2           2             1    1     1       0.4004087161E-02       1    1    1         0.1218174263E-03      0.2043887719E-02
          0                 3           2             1    1     1      -0.3343976127E-03       1    7    1        -0.1096396248E-04      0.1881227172E-03
          0                 4           1             1    1     1       0.2482319462E-04       1    7    1         0.8782082461E-06      0.1596464073E-04
          0                 5           1             1    1     1      -0.1596188507E-05       2    4    1         0.9049760052E-07      0.1196225099E-05
          0                 6           1             1    1     1       0.8850943287E-07       2    4    1        -0.7078202913E-08      0.7741444410E-07

    ------------------------------------------------
       NWT REQUIRED            6 OUTER ITERATIONS 
       AND A TOTAL OF          9 INNER ITERATIONS.
    ------------------------------------------------

 NO OUTPUT CONTROL FOR STRESS PERIOD   34   TIME STEP   22
 
 WELLS WITH REDUCED PUMPING FOR STRESS PERIOD    34 TIME STEP    22
   LAY   ROW   COL         APPL.Q          ACT.Q        GW-HEAD       CELL-BOT
     1     3    50  -0.125999E+01  -0.374815E+00   0.404808E-03   0.000000E+00
     1     5    55  -0.125999E+01  -0.284902E+00   0.341844E-03   0.000000E+00
 
 
 SOLVING FOR HEAD 
                                                   Max.-Head-Change                         Max.-Flux-Residual
  Residual-Control   Outer-Iter.   Inner-Iter.     Column Row Layer    Maximum-Head-Change  Column Row Layer    Maximum-Flux-Residual          L2-NORM 
          0                 1           2             1    1     1      -0.4738322992E-01       1    7    1        -0.1217231181E-02      0.2104479668E-01
          0                 2           2             1    1     1       0.4392020319E-02       1    1    1         0.1217187480E-03      0.2041298889E-02
          0                 3           2             1    1     1      -0.3659541001E-03       1    7    1        -0.1095513132E-04      0.1879512387E-03
          0                 4           1             1    1     1       0.2707917546E-04       1    4    1        -0.8802081837E-06      0.1597007442E-04
          0                 5           1             1    1     1      -0.1725998210E-05       7    4    1         0.9145331603E-07      0.1195448282E-05
          0                 6           1             1    1     1       0.9478403189E-07       2    4    1        -0.7160029014E-08      0.7734514510E-07

    ------------------------------------------------
       NWT REQUIRED            6 OUTER ITERATIONS 
       AND A TOTAL OF          9 INNER ITERATIONS.
    ------------------------------------------------

 NO OUTPUT CONTROL FOR STRESS PERIOD   34   TIME STEP   23
 
 WELLS WITH REDUCED PUMPING FOR STRESS PERIOD    34 TIME STEP    23
   LAY   ROW   COL         APPL.Q          ACT.Q        GW-HEAD       CELL-BOT
     1     3    50  -0.126002E+01  -0.374285E+00   0.404462E-03   0.000000E+00
     1     5    55  -0.126002E+01  -0.284441E+00   0.341521E-03   0.000000E+00
 
 
 SOLVING FOR HEAD 
                                                   Max.-Head-Change                         Max.-Flux-Residual
  Residual-Control   Outer-Iter.   Inner-Iter.     Column Row Layer    Maximum-Head-Change  Column Row Layer    Maximum-Flux-Residual          L2-NORM 
          0                 1           2             1    1     1      -0.5206346256E-01       1    7    1        -0.1216154602E-02      0.2101550209E-01
          0                 2           2             1    1     1       0.4817611740E-02       1    1    1         0.1216105215E-03      0.2038137578E-02
          0                 3           2             1    1     1      -0.4005351747E-03       1    7    1        -0.1094544615E-04      0.1877089067E-03
          0                 4           1             1    1     1       0.2954358197E-04       1    4    1        -0.8865126482E-06      0.1596875702E-04
          0                 5           1             1    1     1      -0.1863479186E-05       7    4    1         0.9262099709E-07      0.1193024254E-05
          0                 6           1             1    1     1       0.1011683021E-06       2    4    1        -0.7229605359E-08      0.7710167639E-07

    ------------------------------------------------
       NWT REQUIRED            6 OUTER ITERATIONS 
       AND A TOTAL OF          9 INNER ITERATIONS.
    ------------------------------------------------

 NO OUTPUT CONTROL FOR STRESS PERIOD   34   TIME STEP   24
 
 WELLS WITH REDUCED PUMPING FOR STRESS PERIOD    34 TIME STEP    24
   LAY   ROW   COL         APPL.Q          ACT.Q        GW-HEAD       CELL-BOT
     1     3    50  -0.125999E+01  -0.373698E+00   0.404090E-03   0.000000E+00
     1     5    55  -0.125999E+01  -0.283922E+00   0.341168E-03   0.000000E+00
 
 
 SOLVING FOR HEAD 
                                                   Max.-Head-Change                         Max.-Flux-Residual
  Residual-Control   Outer-Iter.   Inner-Iter.     Column Row Layer    Maximum-Head-Change  Column Row Layer    Maximum-Flux-Residual          L2-NORM 
          0                 1           3             1    1     1      -0.5720118813E-01       1    7    1        -0.1214973642E-02      0.2097822850E-01
          0                 2           2             1    1     1       0.5284700956E-02       1    7    1         0.1214917946E-03      0.2034812443E-02
          0                 3           2             1    1     1      -0.4384508159E-03       1    7    1        -0.1093482147E-04      0.1874665956E-03
          0                 4           1             1    1     1       0.3223800974E-04       1    4    1        -0.8921625501E-06      0.1596602228E-04
          0                 5           1             1    1     1      -0.2009518529E-05       7    4    1         0.9334095807E-07      0.1189118497E-05
          0                 6           1             1    1     1       0.1076990145E-06       2    4    1        -0.7290051229E-08      0.7668974736E-07

    ------------------------------------------------
       NWT REQUIRED            6 OUTER ITERATIONS 
       AND A TOTAL OF         10 INNER ITERATIONS.
    ------------------------------------------------

 NO OUTPUT CONTROL FOR STRESS PERIOD   34   TIME STEP   25
 
 WELLS WITH REDUCED PUMPING FOR STRESS PERIOD    34 TIME STEP    25
   LAY   ROW   COL         APPL.Q          ACT.Q        GW-HEAD       CELL-BOT
     1     3    50  -0.126001E+01  -0.373003E+00   0.403640E-03   0.000000E+00
     1     5    55  -0.126001E+01  -0.283317E+00   0.340748E-03   0.000000E+00
 
 
 SOLVING FOR HEAD 
                                                   Max.-Head-Change                         Max.-Flux-Residual
  Residual-Control   Outer-Iter.   Inner-Iter.     Column Row Layer    Maximum-Head-Change  Column Row Layer    Maximum-Flux-Residual          L2-NORM 
          0                 1           3             1    1     1      -0.6283967583E-01       1    7    1        -0.1213677832E-02      0.2093515154E-01
          0                 2           2             1    1     1       0.5796915831E-02       1    7    1         0.1213615084E-03      0.2030885409E-02
          0                 3           2             1    1     1      -0.4799899192E-03       1    7    1        -0.1092316292E-04      0.1872027209E-03
          0                 4           1             1    1     1       0.3517737345E-04       1    4    1        -0.8973417422E-06      0.1596554027E-04
          0                 5           1             1    1     1      -0.2159541379E-05       9    4    1         0.9474951312E-07      0.1184652261E-05
          0                 6           1             1    1     1       0.1138871670E-06       9    4    1        -0.7338613273E-08      0.7621479562E-07

    ------------------------------------------------
       NWT REQUIRED            6 OUTER ITERATIONS 
       AND A TOTAL OF         10 INNER ITERATIONS.
    ------------------------------------------------

 NO OUTPUT CONTROL FOR STRESS PERIOD   34   TIME STEP   26
 
 WELLS WITH REDUCED PUMPING FOR STRESS PERIOD    34 TIME STEP    26
   LAY   ROW   COL         APPL.Q          ACT.Q        GW-HEAD       CELL-BOT
     1     3    50  -0.126001E+01  -0.372301E+00   0.403190E-03   0.000000E+00
     1     5    55  -0.126001E+01  -0.282703E+00   0.340324E-03   0.000000E+00
 
 
 SOLVING FOR HEAD 
                                                   Max.-Head-Change                         Max.-Flux-Residual
  Residual-Control   Outer-Iter.   Inner-Iter.     Column Row Layer    Maximum-Head-Change  Column Row Layer    Maximum-Flux-Residual          L2-NORM 
          0                 1           3             1    1     1      -0.6902971838E-01       1    7    1        -0.1212255623E-02      0.2090461597E-01
          0                 2           2             1    1     1       0.6359681245E-02       1    7    1         0.1212185479E-03      0.2026528055E-02
          0                 3           2             1    1     1      -0.5256409475E-03       1    7    1        -0.1091036934E-04      0.1867276950E-03
          0                 4           1             1    1     1       0.3839765992E-04       1    4    1        -0.9022524132E-06      0.1593399774E-04
          0                 5           1             1    1     1      -0.2313739619E-05       9    4    1         0.9555450475E-07      0.1175041071E-05
          0                 6           1             1    1     1       0.1196339168E-06       9    4    1        -0.7374595157E-08      0.7529167058E-07

    ------------------------------------------------
       NWT REQUIRED            6 OUTER ITERATIONS 
       AND A TOTAL OF         10 INNER ITERATIONS.
    ------------------------------------------------

 NO OUTPUT CONTROL FOR STRESS PERIOD   34   TIME STEP   27
 
 WELLS WITH REDUCED PUMPING FOR STRESS PERIOD    34 TIME STEP    27
   LAY   ROW   COL         APPL.Q          ACT.Q        GW-HEAD       CELL-BOT
     1     3    50  -0.126000E+01  -0.371500E+00   0.402676E-03   0.000000E+00
     1     5    55  -0.126000E+01  -0.281992E+00   0.339834E-03   0.000000E+00
 
 
 SOLVING FOR HEAD 
                                                   Max.-Head-Change                         Max.-Flux-Residual
  Residual-Control   Outer-Iter.   Inner-Iter.     Column Row Layer    Maximum-Head-Change  Column Row Layer    Maximum-Flux-Residual          L2-NORM 
          0                 1           3             2    4     1      -0.7642894605E-01       1    7    1        -0.1210739166E-02      0.2092373309E-01
          0                 2           2             1    1     1       0.7039046580E-02       1    7    1         0.1210742799E-03      0.2023961997E-02
          0                 3           2             1    1     1      -0.5815717450E-03       1    7    1        -0.1089739117E-04      0.1860089607E-03
          0                 4           1             1    1     1       0.4239251940E-04      28    4    1        -0.8906345048E-06      0.1584980930E-04
          0                 5           1             1    1     1      -0.2499401047E-05       9    4    1         0.9328467954E-07      0.1157859230E-05
          0                 6           1             1    1     1       0.1261428383E-06       9    4    1        -0.7245134270E-08      0.7376859345E-07

    ------------------------------------------------
       NWT REQUIRED            6 OUTER ITERATIONS 
       AND A TOTAL OF         10 INNER ITERATIONS.
    ------------------------------------------------

 NO OUTPUT CONTROL FOR STRESS PERIOD   34   TIME STEP   28
 
 WELLS WITH REDUCED PUMPING FOR STRESS PERIOD    34 TIME STEP    28
   LAY   ROW   COL         APPL.Q          ACT.Q        GW-HEAD       CELL-BOT
     1     3    50  -0.125998E+01  -0.370636E+00   0.402124E-03   0.000000E+00
     1     5    55  -0.125998E+01  -0.281237E+00   0.339316E-03   0.000000E+00
 
 
 SOLVING FOR HEAD 
                                                   Max.-Head-Change                         Max.-Flux-Residual
  Residual-Control   Outer-Iter.   Inner-Iter.     Column Row Layer    Maximum-Head-Change  Column Row Layer    Maximum-Flux-Residual          L2-NORM 
          0                 1           3             1    4     1      -0.8528308051E-01       2    3    1        -0.1220866441E-02      0.2102206502E-01
          0                 2           2             1    1     1       0.7841526921E-02       2    3    1         0.1220929982E-03      0.2029124826E-02
          0                 3           2             1    1     1      -0.6482505821E-03       4    3    1        -0.1099543967E-04      0.1859065650E-03
          0                 4           1             3    1     1       0.4719302171E-04      28    4    1        -0.8859295431E-06      0.1580742259E-04
          0                 5           1             1    1     1      -0.2711257660E-05       9    4    1         0.9199440498E-07      0.1140655889E-05
          0                 6           1             1    1     1       0.1329051700E-06       9    4    1        -0.7164278060E-08      0.7217180455E-07

    ------------------------------------------------
       NWT REQUIRED            6 OUTER ITERATIONS 
       AND A TOTAL OF         10 INNER ITERATIONS.
    ------------------------------------------------

 NO OUTPUT CONTROL FOR STRESS PERIOD   34   TIME STEP   29
 
 WELLS WITH REDUCED PUMPING FOR STRESS PERIOD    34 TIME STEP    29
   LAY   ROW   COL         APPL.Q          ACT.Q        GW-HEAD       CELL-BOT
     1     3    50  -0.126001E+01  -0.369750E+00   0.401547E-03   0.000000E+00
     1     5    55  -0.126001E+01  -0.280462E+00   0.338774E-03   0.000000E+00
 
 
 SOLVING FOR HEAD 
                                                   Max.-Head-Change                         Max.-Flux-Residual
  Residual-Control   Outer-Iter.   Inner-Iter.     Column Row Layer    Maximum-Head-Change  Column Row Layer    Maximum-Flux-Residual          L2-NORM 
          0                 1           3             1    4     1      -0.9472034948E-01       1    5    1        -0.1236604401E-02      0.2115704662E-01
          0                 2           2             1    1     1       0.8723193022E-02       1    5    1         0.1236643967E-03      0.2040731967E-02
          0                 3           2             4    1     1      -0.7216877611E-03       4    3    1        -0.1114328236E-04      0.1864967981E-03
          0                 4           1             4    1     1       0.5247548142E-04       4    3    1         0.8941737981E-06      0.1581892191E-04
          0                 5           1             1    1     1      -0.2915915008E-05       9    4    1         0.9408826429E-07      0.1124759095E-05
          0                 6           1             1    1     1       0.1378356217E-06       9    4    1        -0.7260670287E-08      0.7064924118E-07

    ------------------------------------------------
       NWT REQUIRED            6 OUTER ITERATIONS 
       AND A TOTAL OF         10 INNER ITERATIONS.
    ------------------------------------------------

 NO OUTPUT CONTROL FOR STRESS PERIOD   34   TIME STEP   30
 
 WELLS WITH REDUCED PUMPING FOR STRESS PERIOD    34 TIME STEP    30
   LAY   ROW   COL         APPL.Q          ACT.Q        GW-HEAD       CELL-BOT
     1     3    50  -0.125998E+01  -0.368803E+00   0.400943E-03   0.000000E+00
     1     5    55  -0.125998E+01  -0.279638E+00   0.338208E-03   0.000000E+00
 



 STREAM LISTING     PERIOD     34   STEP       30

 LAYER ROW COL. STREAM  RCH.   FLOW INTO    STREAM     FLOW OUT OF   OVRLND.    DIRECT     STREAM      STREAM      STREAM     STREAM  STREAMBED   FLOW TO   CHNG. UNSAT. 
                SEG.NO.  NO.   STRM. RCH.    LOSS       STRM. RCH.   RUNOFF     PRECIP       ET         HEAD        DEPTH      WIDTH  CONDCTNC.   WAT. TAB.

   1    4    1     1     1    3.5000E-01  3.6684E-04   3.4963E-01  0.000E+00  0.000E+00  0.000E+00  1.40308E+02  4.578E-01  2.360E+00  3.830E-04  6.366E-04 -2.698E-04
   1    4    2     1     2    3.4963E-01  3.6669E-04   3.4927E-01  0.000E+00  0.000E+00  0.000E+00  1.40008E+02  4.576E-01  2.360E+00  3.829E-04  6.326E-04 -2.659E-04
   1    4    3     1     3    3.4927E-01  3.6655E-04   3.4890E-01  0.000E+00  0.000E+00  0.000E+00  1.39707E+02  4.574E-01  2.360E+00  3.829E-04  6.292E-04 -2.627E-04
   1    4    4     1     4    3.4890E-01  3.6641E-04   3.4853E-01  0.000E+00  0.000E+00  0.000E+00  1.39407E+02  4.572E-01  2.359E+00  3.828E-04  6.265E-04 -2.601E-04
   1    4    5     1     5    3.4853E-01  3.6627E-04   3.4817E-01  0.000E+00  0.000E+00  0.000E+00  1.39107E+02  4.570E-01  2.359E+00  3.827E-04  6.242E-04 -2.579E-04
   1    4    6     1     6    3.4817E-01  3.6613E-04   3.4780E-01  0.000E+00  0.000E+00  0.000E+00  1.38807E+02  4.568E-01  2.359E+00  3.827E-04  6.217E-04 -2.556E-04
   1    4    7     1     7    3.4780E-01  3.6599E-04   3.4744E-01  0.000E+00  0.000E+00  0.000E+00  1.38507E+02  4.566E-01  2.359E+00  3.826E-04  6.208E-04 -2.548E-04
   1    4    8     1     8    3.4744E-01  3.6585E-04   3.4707E-01  0.000E+00  0.000E+00  0.000E+00  1.38206E+02  4.564E-01  2.359E+00  3.825E-04  6.215E-04 -2.556E-04
   1    4    9     1     9    3.4707E-01  3.6571E-04   3.4670E-01  0.000E+00  0.000E+00  0.000E+00  1.37906E+02  4.562E-01  2.358E+00  3.825E-04  6.224E-04 -2.567E-04
   1    4   10     1    10    3.4670E-01  3.6557E-04   3.4634E-01  0.000E+00  0.000E+00  0.000E+00  1.37606E+02  4.560E-01  2.358E+00  3.824E-04  6.236E-04 -2.580E-04
   1    4   11     1    11    3.4634E-01  3.6543E-04   3.4597E-01  0.000E+00  0.000E+00  0.000E+00  1.37306E+02  4.558E-01  2.358E+00  3.823E-04  6.254E-04 -2.600E-04
   1    4   12     1    12    3.4597E-01  3.6529E-04   3.4561E-01  0.000E+00  0.000E+00  0.000E+00  1.37006E+02  4.556E-01  2.358E+00  3.823E-04  6.279E-04 -2.626E-04
   1    4   13     1    13    3.4561E-01  3.6515E-04   3.4524E-01  0.000E+00  0.000E+00  0.000E+00  1.36705E+02  4.554E-01  2.357E+00  3.822E-04  6.310E-04 -2.659E-04
   1    4   14     1    14    3.4524E-01  3.6501E-04   3.4488E-01  0.000E+00  0.000E+00  0.000E+00  1.36405E+02  4.552E-01  2.357E+00  3.821E-04  6.349E-04 -2.699E-04
   1    4   15     1    15    3.4488E-01  3.6487E-04   3.4451E-01  0.000E+00  0.000E+00  0.000E+00  1.36105E+02  4.550E-01  2.357E+00  3.821E-04  6.395E-04 -2.746E-04
   1    4   16     1    16    3.4451E-01  3.6473E-04   3.4415E-01  0.000E+00  0.000E+00  0.000E+00  1.35805E+02  4.548E-01  2.357E+00  3.820E-04  6.447E-04 -2.800E-04
   1    4   17     1    17    3.4415E-01  3.6459E-04   3.4378E-01  0.000E+00  0.000E+00  0.000E+00  1.35505E+02  4.546E-01  2.356E+00  3.819E-04  6.533E-04 -2.887E-04
   1    4   18     1    18    3.4378E-01  3.6445E-04   3.4342E-01  0.000E+00  0.000E+00  0.000E+00  1.35204E+02  4.544E-01  2.356E+00  3.819E-04  6.658E-04 -3.013E-04
   1    4   19     1    19    3.4342E-01  3.6431E-04   3.4305E-01  0.000E+00  0.000E+00  0.000E+00  1.34904E+02  4.542E-01  2.356E+00  3.818E-04  6.797E-04 -3.154E-04
   1    4   20     1    20    3.4305E-01  3.6417E-04   3.4269E-01  0.000E+00  0.000E+00  0.000E+00  1.34604E+02  4.540E-01  2.356E+00  3.817E-04  6.878E-04 -3.237E-04
   1    4   21     1    21    3.4269E-01  3.6403E-04   3.4233E-01  0.000E+00  0.000E+00  0.000E+00  1.34304E+02  4.538E-01  2.355E+00  3.817E-04  6.957E-04 -3.316E-04
   1    4   22     1    22    3.4233E-01  3.6389E-04   3.4196E-01  0.000E+00  0.000E+00  0.000E+00  1.34004E+02  4.535E-01  2.355E+00  3.816E-04  7.042E-04 -3.403E-04
   1    4   23     1    23    3.4196E-01  3.6375E-04   3.4160E-01  0.000E+00  0.000E+00  0.000E+00  1.33703E+02  4.533E-01  2.355E+00  3.815E-04  7.185E-04 -3.547E-04
   1    4   24     1    24    3.4160E-01  3.6361E-04   3.4123E-01  0.000E+00  0.000E+00  0.000E+00  1.33403E+02  4.531E-01  2.355E+00  3.815E-04  7.366E-04 -3.730E-04
   1    4   25     1    25    3.4123E-01  3.6347E-04   3.4087E-01  0.000E+00  0.000E+00  0.000E+00  1.33103E+02  4.529E-01  2.354E+00  3.814E-04  7.557E-04 -3.922E-04
   1    4   26     1    26    3.4087E-01  3.6333E-04   3.4051E-01  0.000E+00  0.000E+00  0.000E+00  1.32803E+02  4.527E-01  2.354E+00  3.814E-04  7.675E-04 -4.042E-04
   1    4   27     1    27    3.4051E-01  3.6319E-04   3.4014E-01  0.000E+00  0.000E+00  0.000E+00  1.32503E+02  4.525E-01  2.354E+00  3.813E-04  7.860E-04 -4.228E-04
   1    4   28     1    28    3.4014E-01  3.6305E-04   3.3978E-01  0.000E+00  0.000E+00  0.000E+00  1.32202E+02  4.523E-01  2.354E+00  3.812E-04  8.061E-04 -4.431E-04
   1    4   29     1    29    3.3978E-01  3.6291E-04   3.3942E-01  0.000E+00  0.000E+00  0.000E+00  1.31902E+02  4.521E-01  2.353E+00  3.812E-04  8.298E-04 -4.669E-04
   1    4   30     1    30    3.3942E-01  3.6277E-04   3.3906E-01  0.000E+00  0.000E+00  0.000E+00  1.31602E+02  4.519E-01  2.353E+00  3.811E-04  8.506E-04 -4.878E-04
   1    4   31     1    31    3.3906E-01  3.6263E-04   3.3869E-01  0.000E+00  0.000E+00  0.000E+00  1.31302E+02  4.517E-01  2.353E+00  3.810E-04  8.747E-04 -5.121E-04
   1    4   32     1    32    3.3869E-01  3.6249E-04   3.3833E-01  0.000E+00  0.000E+00  0.000E+00  1.31002E+02  4.515E-01  2.353E+00  3.810E-04  8.910E-04 -5.286E-04
   1    4   33     1    33    3.3833E-01  3.6235E-04   3.3797E-01  0.000E+00  0.000E+00  0.000E+00  1.30701E+02  4.513E-01  2.352E+00  3.809E-04  9.059E-04 -5.437E-04
   1    4   34     1    34    3.3797E-01  3.6221E-04   3.3761E-01  0.000E+00  0.000E+00  0.000E+00  1.30401E+02  4.511E-01  2.352E+00  3.808E-04  8.766E-04 -5.145E-04
   1    4   35     1    35    3.3761E-01  3.6207E-04   3.3724E-01  0.000E+00  0.000E+00  0.000E+00  1.30101E+02  4.509E-01  2.352E+00  3.808E-04  8.781E-04 -5.161E-04
   1    4   36     1    36    3.3724E-01  3.6193E-04   3.3688E-01  0.000E+00  0.000E+00  0.000E+00  1.29801E+02  4.507E-01  2.352E+00  3.807E-04  8.790E-04 -5.171E-04
   1    4   37     1    37    3.3688E-01  3.6179E-04   3.3652E-01  0.000E+00  0.000E+00  0.000E+00  1.29501E+02  4.505E-01  2.352E+00  3.806E-04  8.985E-04 -5.368E-04
   1    4   38     1    38    3.3652E-01  3.6165E-04   3.3616E-01  0.000E+00  0.000E+00  0.000E+00  1.29200E+02  4.503E-01  2.351E+00  3.806E-04  8.997E-04 -5.381E-04
   1    4   39     1    39    3.3616E-01  3.6151E-04   3.3580E-01  0.000E+00  0.000E+00  0.000E+00  1.28900E+02  4.501E-01  2.351E+00  3.805E-04  9.009E-04 -5.395E-04
   1    4   40     1    40    3.3580E-01  3.6137E-04   3.3544E-01  0.000E+00  0.000E+00  0.000E+00  1.28600E+02  4.499E-01  2.351E+00  3.804E-04  9.024E-04 -5.411E-04
   1    4   41     1    41    3.3544E-01  3.6123E-04   3.3507E-01  0.000E+00  0.000E+00  0.000E+00  1.28300E+02  4.497E-01  2.351E+00  3.804E-04  9.039E-04 -5.428E-04
   1    4   42     1    42    3.3507E-01  3.6109E-04   3.3471E-01  0.000E+00  0.000E+00  0.000E+00  1.28000E+02  4.495E-01  2.350E+00  3.803E-04  9.056E-04 -5.446E-04
   1    4   43     1    43    3.3471E-01  3.6095E-04   3.3435E-01  0.000E+00  0.000E+00  0.000E+00  1.27699E+02  4.493E-01  2.350E+00  3.802E-04  9.240E-04 -5.631E-04
   1    4   44     1    44    3.3435E-01  3.6081E-04   3.3399E-01  0.000E+00  0.000E+00  0.000E+00  1.27399E+02  4.491E-01  2.350E+00  3.802E-04  9.394E-04 -5.787E-04
   1    4   45     1    45    3.3399E-01  3.6067E-04   3.3363E-01  0.000E+00  0.000E+00  0.000E+00  1.27099E+02  4.489E-01  2.350E+00  3.801E-04  9.419E-04 -5.813E-04
   1    4   46     1    46    3.3363E-01  3.6053E-04   3.3327E-01  0.000E+00  0.000E+00  0.000E+00  1.26799E+02  4.487E-01  2.349E+00  3.800E-04  9.448E-04 -5.844E-04
   1    4   47     1    47    3.3327E-01  3.6039E-04   3.3291E-01  0.000E+00  0.000E+00  0.000E+00  1.26498E+02  4.485E-01  2.349E+00  3.800E-04  9.483E-04 -5.880E-04
   1    4   48     1    48    3.3291E-01  3.6025E-04   3.3255E-01  0.000E+00  0.000E+00  0.000E+00  1.26198E+02  4.483E-01  2.349E+00  3.799E-04  9.989E-04 -6.388E-04
   1    4   49     1    49    3.3255E-01  3.6012E-04   3.3219E-01  0.000E+00  0.000E+00  0.000E+00  1.25898E+02  4.481E-01  2.349E+00  3.798E-04  1.026E-03 -6.658E-04
   1    4   50     1    50    3.3219E-01  3.5998E-04   3.3183E-01  0.000E+00  0.000E+00  0.000E+00  1.25598E+02  4.479E-01  2.348E+00  3.798E-04  1.036E-03 -6.765E-04
   1    4   51     1    51    3.3183E-01  3.5984E-04   3.3147E-01  0.000E+00  0.000E+00  0.000E+00  1.25298E+02  4.477E-01  2.348E+00  3.797E-04  1.031E-03 -6.717E-04
   1    4   52     1    52    3.3147E-01  3.5970E-04   3.3111E-01  0.000E+00  0.000E+00  0.000E+00  1.24997E+02  4.475E-01  2.348E+00  3.796E-04  1.029E-03 -6.695E-04
   1    4   53     1    53    3.3111E-01  3.5956E-04   3.3075E-01  0.000E+00  0.000E+00  0.000E+00  1.24697E+02  4.473E-01  2.348E+00  3.796E-04  1.029E-03 -6.692E-04
   1    4   54     1    54    3.3075E-01  3.5942E-04   3.3039E-01  0.000E+00  0.000E+00  0.000E+00  1.24397E+02  4.471E-01  2.347E+00  3.795E-04  1.030E-03 -6.707E-04
   1    4   55     1    55    3.3039E-01  3.5928E-04   3.3003E-01  0.000E+00  0.000E+00  0.000E+00  1.24097E+02  4.469E-01  2.347E+00  3.794E-04  1.034E-03 -6.752E-04
   1    4   56     1    56    3.3003E-01  3.5914E-04   3.2967E-01  0.000E+00  0.000E+00  0.000E+00  1.23797E+02  4.467E-01  2.347E+00  3.794E-04  1.023E-03 -6.643E-04
   1    4   57     1    57    3.2967E-01  3.5900E-04   3.2931E-01  0.000E+00  0.000E+00  0.000E+00  1.23496E+02  4.465E-01  2.347E+00  3.793E-04  1.016E-03 -6.572E-04
   1    4   58     1    58    3.2931E-01  3.5886E-04   3.2896E-01  0.000E+00  0.000E+00  0.000E+00  1.23196E+02  4.463E-01  2.346E+00  3.792E-04  9.448E-04 -5.860E-04
   1    4   59     1    59    3.2896E-01  3.5872E-04   3.2860E-01  0.000E+00  0.000E+00  0.000E+00  1.22896E+02  4.461E-01  2.346E+00  3.792E-04  9.409E-04 -5.823E-04
   1    4   60     1    60    3.2860E-01  3.5858E-04   3.2824E-01  0.000E+00  0.000E+00  0.000E+00  1.22596E+02  4.459E-01  2.346E+00  3.791E-04  9.376E-04 -5.792E-04
   1    4   61     1    61    3.2824E-01  3.5844E-04   3.2788E-01  0.000E+00  0.000E+00  0.000E+00  1.22296E+02  4.457E-01  2.346E+00  3.790E-04  9.348E-04 -5.765E-04
   1    4   62     1    62    3.2788E-01  3.5830E-04   3.2752E-01  0.000E+00  0.000E+00  0.000E+00  1.21995E+02  4.455E-01  2.345E+00  3.790E-04  9.324E-04 -5.742E-04
   1    4   63     1    63    3.2752E-01  3.5816E-04   3.2716E-01  0.000E+00  0.000E+00  0.000E+00  1.21695E+02  4.453E-01  2.345E+00  3.789E-04  9.302E-04 -5.722E-04
   1    4   64     1    64    3.2716E-01  3.5803E-04   3.2680E-01  0.000E+00  0.000E+00  0.000E+00  1.21395E+02  4.451E-01  2.345E+00  3.788E-04  9.004E-04 -5.425E-04
   1    4   65     1    65    3.2680E-01  3.5789E-04   3.2645E-01  0.000E+00  0.000E+00  0.000E+00  1.21095E+02  4.448E-01  2.345E+00  3.788E-04  8.989E-04 -5.412E-04
   1    4   66     1    66    3.2645E-01  3.5775E-04   3.2609E-01  0.000E+00  0.000E+00  0.000E+00  1.20795E+02  4.446E-01  2.344E+00  3.787E-04  8.977E-04 -5.400E-04
   1    4   67     1    67    3.2609E-01  3.5761E-04   3.2573E-01  0.000E+00  0.000E+00  0.000E+00  1.20494E+02  4.444E-01  2.344E+00  3.786E-04  8.966E-04 -5.391E-04
   1    4   68     1    68    3.2573E-01  3.5747E-04   3.2537E-01  0.000E+00  0.000E+00  0.000E+00  1.20194E+02  4.442E-01  2.344E+00  3.786E-04  8.956E-04 -5.383E-04
   1    4   69     1    69    3.2537E-01  3.5733E-04   3.2502E-01  0.000E+00  0.000E+00  0.000E+00  1.19894E+02  4.440E-01  2.344E+00  3.785E-04  8.764E-04 -5.192E-04
   1    4   70     1    70    3.2502E-01  3.5719E-04   3.2466E-01  0.000E+00  0.000E+00  0.000E+00  1.19594E+02  4.438E-01  2.344E+00  3.784E-04  8.756E-04 -5.185E-04
   1    4   71     1    71    3.2466E-01  3.5705E-04   3.2430E-01  0.000E+00  0.000E+00  0.000E+00  1.19294E+02  4.436E-01  2.343E+00  3.784E-04  8.751E-04 -5.182E-04
   1    4   72     1    72    3.2430E-01  3.5691E-04   3.2395E-01  0.000E+00  0.000E+00  0.000E+00  1.18993E+02  4.434E-01  2.343E+00  3.783E-04  8.677E-04 -5.109E-04
   1    4   73     1    73    3.2395E-01  3.5677E-04   3.2359E-01  0.000E+00  0.000E+00  0.000E+00  1.18693E+02  4.432E-01  2.343E+00  3.782E-04  8.860E-04 -5.292E-04
   1    4   74     1    74    3.2359E-01  3.5664E-04   3.2323E-01  0.000E+00  0.000E+00  0.000E+00  1.18393E+02  4.430E-01  2.343E+00  3.782E-04  8.633E-04 -5.067E-04
   1    4   75     1    75    3.2323E-01  3.5650E-04   3.2288E-01  0.000E+00  0.000E+00  0.000E+00  1.18093E+02  4.428E-01  2.342E+00  3.781E-04  8.354E-04 -4.789E-04
   1    4   76     1    76    3.2288E-01  3.5636E-04   3.2252E-01  0.000E+00  0.000E+00  0.000E+00  1.17793E+02  4.426E-01  2.342E+00  3.780E-04  8.080E-04 -4.517E-04
   1    4   77     1    77    3.2252E-01  3.5622E-04   3.2216E-01  0.000E+00  0.000E+00  0.000E+00  1.17492E+02  4.424E-01  2.342E+00  3.780E-04  7.820E-04 -4.257E-04
   1    4   78     1    78    3.2216E-01  3.5608E-04   3.2181E-01  0.000E+00  0.000E+00  0.000E+00  1.17192E+02  4.422E-01  2.342E+00  3.779E-04  7.611E-04 -4.050E-04
   1    4   79     1    79    3.2181E-01  3.5594E-04   3.2145E-01  0.000E+00  0.000E+00  0.000E+00  1.16892E+02  4.420E-01  2.341E+00  3.779E-04  7.361E-04 -3.801E-04
   1    4   80     1    80    3.2145E-01  3.5580E-04   3.2110E-01  0.000E+00  0.000E+00  0.000E+00  1.16592E+02  4.418E-01  2.341E+00  3.778E-04  7.104E-04 -3.546E-04
   1    4   81     1    81    3.2110E-01  3.5566E-04   3.2074E-01  0.000E+00  0.000E+00  0.000E+00  1.16292E+02  4.416E-01  2.341E+00  3.777E-04  6.966E-04 -3.409E-04
   1    4   82     1    82    3.2074E-01  3.5552E-04   3.2038E-01  0.000E+00  0.000E+00  0.000E+00  1.15991E+02  4.414E-01  2.341E+00  3.777E-04  6.774E-04 -3.219E-04
   1    4   83     1    83    3.2038E-01  3.5539E-04   3.2003E-01  0.000E+00  0.000E+00  0.000E+00  1.15691E+02  4.412E-01  2.340E+00  3.776E-04  6.524E-04 -2.971E-04
   1    4   84     1    84    3.2003E-01  3.5525E-04   3.1967E-01  0.000E+00  0.000E+00  0.000E+00  1.15391E+02  4.410E-01  2.340E+00  3.775E-04  6.384E-04 -2.832E-04
   1    4   85     1    85    3.1967E-01  3.5511E-04   3.1932E-01  0.000E+00  0.000E+00  0.000E+00  1.15091E+02  4.408E-01  2.340E+00  3.775E-04  6.251E-04 -2.700E-04
   1    4   86     1    86    3.1932E-01  3.5497E-04   3.1896E-01  0.000E+00  0.000E+00  0.000E+00  1.14791E+02  4.406E-01  2.340E+00  3.774E-04  6.122E-04 -2.572E-04
   1    4   87     1    87    3.1896E-01  3.5483E-04   3.1861E-01  0.000E+00  0.000E+00  0.000E+00  1.14490E+02  4.404E-01  2.339E+00  3.773E-04  5.917E-04 -2.369E-04
   1    4   88     1    88    3.1861E-01  3.5469E-04   3.1825E-01  0.000E+00  0.000E+00  0.000E+00  1.14190E+02  4.402E-01  2.339E+00  3.773E-04  5.775E-04 -2.228E-04
   1    4   89     1    89    3.1825E-01  3.5455E-04   3.1790E-01  0.000E+00  0.000E+00  0.000E+00  1.13890E+02  4.400E-01  2.339E+00  3.772E-04  5.481E-04 -1.935E-04
   1    4   90     1    90    3.1790E-01  3.5442E-04   3.1755E-01  0.000E+00  0.000E+00  0.000E+00  1.13590E+02  4.398E-01  2.339E+00  3.771E-04  5.320E-04 -1.776E-04
   1    4   91     1    91    3.1755E-01  3.5428E-04   3.1719E-01  0.000E+00  0.000E+00  0.000E+00  1.13290E+02  4.396E-01  2.338E+00  3.771E-04  5.204E-04 -1.661E-04
   1    4   92     1    92    3.1719E-01  3.5414E-04   3.1684E-01  0.000E+00  0.000E+00  0.000E+00  1.12989E+02  4.394E-01  2.338E+00  3.770E-04  5.132E-04 -1.591E-04
   1    4   93     1    93    3.1684E-01  3.5400E-04   3.1648E-01  0.000E+00  0.000E+00  0.000E+00  1.12689E+02  4.392E-01  2.338E+00  3.769E-04  5.010E-04 -1.470E-04
   1    4   94     1    94    3.1648E-01  3.5386E-04   3.1613E-01  0.000E+00  0.000E+00  0.000E+00  1.12389E+02  4.390E-01  2.338E+00  3.769E-04  4.893E-04 -1.355E-04
   1    4   95     1    95    3.1613E-01  3.5372E-04   3.1578E-01  0.000E+00  0.000E+00  0.000E+00  1.12089E+02  4.388E-01  2.337E+00  3.768E-04  4.781E-04 -1.244E-04
   1    4   96     1    96    3.1578E-01  3.5358E-04   3.1542E-01  0.000E+00  0.000E+00  0.000E+00  1.11789E+02  4.386E-01  2.337E+00  3.767E-04  4.674E-04 -1.138E-04
   1    4   97     1    97    3.1542E-01  3.5345E-04   3.1507E-01  0.000E+00  0.000E+00  0.000E+00  1.11488E+02  4.384E-01  2.337E+00  3.767E-04  4.572E-04 -1.037E-04
   1    4   98     1    98    3.1507E-01  3.5331E-04   3.1471E-01  0.000E+00  0.000E+00  0.000E+00  1.11188E+02  4.382E-01  2.337E+00  3.766E-04  4.576E-04 -1.043E-04
   1    4   99     1    99    3.1471E-01  3.5317E-04   3.1436E-01  0.000E+00  0.000E+00  0.000E+00  1.10888E+02  4.380E-01  2.336E+00  3.765E-04  4.544E-04 -1.012E-04
   1    4  100     1   100    3.1436E-01  3.5303E-04   3.1401E-01  0.000E+00  0.000E+00  0.000E+00  1.10588E+02  4.378E-01  2.336E+00  3.765E-04  4.441E-04 -9.107E-05



1
  VOLUMETRIC BUDGET FOR UNSATURATED ZONE BENEATH STREAMS AT END OF TIME STEP    30 STRESS PERIOD  34
  ------------------------------------------------------------------------------------------------

    CUMULATIVE VOLUMES             L**3    RATES FOR THIS TIME STEP         L**3/T
    ------------------                     ------------------------


          STREAM LOSS =     30172960.0000            STREAM LOSS =        3.5992E-02
    CHANGE IN STORAGE =      1105804.2500      CHANGE IN STORAGE =       -4.1003E-02
       RECHARGE TO GW =     29074758.0000         RECHARGE TO GW =        7.6989E-02

             TOTAL IN =     30172960.0000               TOTAL IN =        7.6994E-02

            TOTAL OUT =     30180562.0000              TOTAL OUT =        7.6989E-02

             IN - OUT =        -7602.0000               IN - OUT =        4.6343E-06

  PERCENT DISCREPANCY =           -0.01      PERCENT DISCREPANCY =             0.00



1
  VOLUMETRIC BUDGET FOR ENTIRE MODEL AT END OF TIME STEP   30, STRESS PERIOD  34
  ------------------------------------------------------------------------------

     CUMULATIVE VOLUMES      L**3       RATES FOR THIS TIME STEP      L**3/T
     ------------------                 ------------------------

           IN:                                      IN:
           ---                                      ---
             STORAGE     =   104664984.0000               STORAGE     =           0.5102
       CONSTANT HEAD     =           0.0000         CONSTANT HEAD     =           0.0000
               WELLS     =           0.0000                 WELLS     =           0.0000
     HEAD DEP BOUNDS     =      726626.6250       HEAD DEP BOUNDS     =       6.1206E-02
      STREAM LEAKAGE     =    29074230.0000        STREAM LEAKAGE     =       7.6989E-02

                TOTAL IN =   134465840.0000                  TOTAL IN =           0.6484

          OUT:                                     OUT:
          ----                                     ----
             STORAGE     =     3027682.2500               STORAGE     =           0.0000
       CONSTANT HEAD     =           0.0000         CONSTANT HEAD     =           0.0000
               WELLS     =   115078832.0000                 WELLS     =           0.6484
     HEAD DEP BOUNDS     =    16359348.0000       HEAD DEP BOUNDS     =           0.0000
      STREAM LEAKAGE     =           0.0000        STREAM LEAKAGE     =           0.0000

               TOTAL OUT =   134465856.0000                 TOTAL OUT =           0.6484

                IN - OUT =         -16.0000                  IN - OUT =      -5.9605E-08

     PERCENT DISCREPANCY =          -0.00         PERCENT DISCREPANCY =          -0.00






         TIME SUMMARY AT END OF TIME STEP   30 IN STRESS PERIOD   34
                    SECONDS     MINUTES      HOURS       DAYS        YEARS
                    -----------------------------------------------------------
   TIME STEP LENGTH 2.49961E+05  4166.0      69.434      2.8931     7.92080E-03
 STRESS PERIOD TIME 2.59200E+06  43200.      720.00      30.000     8.21355E-02
         TOTAL TIME 8.81280E+07 1.46880E+06  24480.      1020.0      2.7926    
1
1
                            STRESS PERIOD NO.   35, LENGTH =   2592000.    
                            -----------------------------------------------

                              NUMBER OF TIME STEPS =    30

                               MULTIPLIER FOR DELT =     1.100

                            INITIAL TIME STEP SIZE =   15757.40    

 REUSING NON-PARAMETER WELLS FROM LAST STRESS PERIOD

      1 WELL 

 REUSING NON-PARAMETER GHB CELLS FROM LAST STRESS PERIOD

      7 GHB CELLS



 CLASSIFICATION & COUNT OF STREAM SEGMENTS BASED ON SOURCE OF INFLOW:

                HEADWATER     DIVERSION     RECEIVES TRIBUTARY FLOW
                ---------     ---------     -----------------------
                     1              0               0



                    INPUT DATA FOR EACH STREAM SEGMENT
 ---------------------------------------------------------------------------------------------

 SEGMENT    SEG.     INFLOW   OVERLAND   STREAM    STREAM   ICALC  OUTFLOW  DIVERSION PRIORITY
    NO.    LENGTH     RATE     RUNOFF      ET       PPT.    METH.  TO SEG.  FROM SEG.    NO.

      1  2.000E+04 5.300E-02 0.000E+00 0.000E+00 0.000E+00    2        0        0        0


         STREAMBED PROPERTIES AND STREAM DIMENSIONS

 SEGMENT     BED HYD. COND.      BED THICKNESS     ELEV.-TOP OF BED     WIDTH OF STREAM     DEPTH OF STREAM    STREAM ROUGHNESS
    No.     UPPER     LOWER     UPPER     LOWER     UPPER     LOWER     UPPER     LOWER     UPPER     LOWER   CHANNEL      BANK

     1  3.500E-07 3.500E-07                                                                                 3.000E-02 4.000E-02

  EIGHT POINT CROSS-SECTION DATA FOR SEGMENTS WITH ICALC = 2
    X VALUES X VALUES START FROM LEFT SIDE LOOKING DOWNSTREAM

     SEGMENT NO.        X1        X2        X3        X4        X5        X6        X7        X8
            1      0.000E+00 2.000E+00 4.000E+00 6.000E+00 8.000E+00 1.000E+01 1.200E+01 1.400E+01

    Z VALUES ARE RELATIVE TO STREAMBED ELEVATION

     SEGMENT NO.          Z1        Z2        Z3        Z4        Z5        Z6        Z7        Z8
            1      6.000E+00 4.500E+00 3.500E+00 0.000E+00 3.000E-01 3.500E+00 4.500E+00 6.000E+00



 
 SOLVING FOR HEAD 
                                                   Max.-Head-Change                         Max.-Flux-Residual
  Residual-Control   Outer-Iter.   Inner-Iter.     Column Row Layer    Maximum-Head-Change  Column Row Layer    Maximum-Flux-Residual          L2-NORM 
          0                 1           2             1    2     1      -0.5994714972E-02      50    3    1         0.1375272433E+00      0.1738908099E+00
          0                 2           2             1    1     1       0.5848324165E-03      50    3    1        -0.2249706583E-01      0.3026613866E-01
          0                 3           1             1    1     1      -0.5153561743E-04      50    3    1         0.2004108879E-02      0.2610650142E-02
          0                 4           1             1    1     1       0.4053995813E-05      50    3    1        -0.1608998647E-03      0.2101676410E-03
          0                 5           1             1    1     1      -0.2806036502E-06      50    3    1         0.1130887587E-04      0.1476943257E-04

    ------------------------------------------------
       NWT REQUIRED            5 OUTER ITERATIONS 
       AND A TOTAL OF          7 INNER ITERATIONS.
    ------------------------------------------------

 NO OUTPUT CONTROL FOR STRESS PERIOD   35   TIME STEP    1
 
 WELLS WITH REDUCED PUMPING FOR STRESS PERIOD    35 TIME STEP     1
   LAY   ROW   COL         APPL.Q          ACT.Q        GW-HEAD       CELL-BOT
     1     3    50  -0.790130E+00  -0.368727E+00   0.535094E-03   0.000000E+00
     1     5    55  -0.790130E+00  -0.279574E+00   0.445412E-03   0.000000E+00
 
 
 SOLVING FOR HEAD 
                                                   Max.-Head-Change                         Max.-Flux-Residual
  Residual-Control   Outer-Iter.   Inner-Iter.     Column Row Layer    Maximum-Head-Change  Column Row Layer    Maximum-Flux-Residual          L2-NORM 
          0                 1           2             1    2     1      -0.6602653255E-02       1    3    1        -0.1256858353E-02      0.2125374457E-01
          0                 2           2             1    1     1       0.6431488110E-03       1    3    1         0.1256848033E-03      0.2059569982E-02
          0                 3           1             1    1     1      -0.5658792672E-04       1    3    1        -0.1131170503E-04      0.1868134886E-03
          0                 4           1             1    1     1       0.4445313841E-05       1    5    1         0.9060672959E-06      0.1525761238E-04
          0                 5           1             1    1     1      -0.3073277866E-06       1    5    1        -0.6369565853E-07      0.1092915433E-05

    ------------------------------------------------
       NWT REQUIRED            5 OUTER ITERATIONS 
       AND A TOTAL OF          7 INNER ITERATIONS.
    ------------------------------------------------

 NO OUTPUT CONTROL FOR STRESS PERIOD   35   TIME STEP    2
 
 WELLS WITH REDUCED PUMPING FOR STRESS PERIOD    35 TIME STEP     2
   LAY   ROW   COL         APPL.Q          ACT.Q        GW-HEAD       CELL-BOT
     1     3    50  -0.790130E+00  -0.368674E+00   0.535044E-03   0.000000E+00
     1     5    55  -0.790130E+00  -0.279526E+00   0.445365E-03   0.000000E+00
 
 
 SOLVING FOR HEAD 
                                                   Max.-Head-Change                         Max.-Flux-Residual
  Residual-Control   Outer-Iter.   Inner-Iter.     Column Row Layer    Maximum-Head-Change  Column Row Layer    Maximum-Flux-Residual          L2-NORM 
          0                 1           2             1    1     1      -0.7269558746E-02       4    3    1        -0.1256571556E-02      0.2126836372E-01
          0                 2           2             1    1     1       0.7068964557E-03       4    3    1         0.1256560093E-03      0.2062130212E-02
          0                 3           1             1    1     1      -0.6208974539E-04       4    3    1        -0.1130912189E-04      0.1871630124E-03
          0                 4           1             1    1     1       0.4869816324E-05       4    3    1         0.9058552237E-06      0.1530947787E-04
          0                 5           1             1    1     1      -0.3362114056E-06       4    3    1        -0.6368013672E-07      0.1098883929E-05

    ------------------------------------------------
       NWT REQUIRED            5 OUTER ITERATIONS 
       AND A TOTAL OF          7 INNER ITERATIONS.
    ------------------------------------------------

 NO OUTPUT CONTROL FOR STRESS PERIOD   35   TIME STEP    3
 
 WELLS WITH REDUCED PUMPING FOR STRESS PERIOD    35 TIME STEP     3
   LAY   ROW   COL         APPL.Q          ACT.Q        GW-HEAD       CELL-BOT
     1     3    50  -0.789898E+00  -0.368602E+00   0.535079E-03   0.000000E+00
     1     5    55  -0.789898E+00  -0.279464E+00   0.445385E-03   0.000000E+00
 
 
 SOLVING FOR HEAD 
                                                   Max.-Head-Change                         Max.-Flux-Residual
  Residual-Control   Outer-Iter.   Inner-Iter.     Column Row Layer    Maximum-Head-Change  Column Row Layer    Maximum-Flux-Residual          L2-NORM 
          0                 1           2             1    1     1      -0.8001250875E-02       4    3    1        -0.1255559976E-02      0.2127784543E-01
          0                 2           2             3    1     1       0.7766595684E-03       4    3    1         0.1255547214E-03      0.2063427160E-02
          0                 3           1             3    1     1      -0.6810453084E-04       4    3    1        -0.1130001500E-04      0.1873801908E-03
          0                 4           1             3    1     1       0.5332500645E-05       4    3    1         0.9051230840E-06      0.1535251902E-04
          0                 5           1             3    1     1      -0.3675509729E-06       4    3    1        -0.6362838434E-07      0.1104431321E-05

    ------------------------------------------------
       NWT REQUIRED            5 OUTER ITERATIONS 
       AND A TOTAL OF          7 INNER ITERATIONS.
    ------------------------------------------------

 NO OUTPUT CONTROL FOR STRESS PERIOD   35   TIME STEP    4
 
 WELLS WITH REDUCED PUMPING FOR STRESS PERIOD    35 TIME STEP     4
   LAY   ROW   COL         APPL.Q          ACT.Q        GW-HEAD       CELL-BOT
     1     3    50  -0.790109E+00  -0.368524E+00   0.534911E-03   0.000000E+00
     1     5    55  -0.790109E+00  -0.279395E+00   0.445245E-03   0.000000E+00
 
 
 SOLVING FOR HEAD 
                                                   Max.-Head-Change                         Max.-Flux-Residual
  Residual-Control   Outer-Iter.   Inner-Iter.     Column Row Layer    Maximum-Head-Change  Column Row Layer    Maximum-Flux-Residual          L2-NORM 
          0                 1           2             3    1     1      -0.8806046245E-02       3    3    1        -0.1256344124E-02      0.2129693786E-01
          0                 2           2             4    1     1       0.8535273076E-03       3    3    1         0.1256330482E-03      0.2064683831E-02
          0                 3           1             4    1     1      -0.7472293836E-04       3    3    1        -0.1130707460E-04      0.1874938619E-03
          0                 4           1             4    1     1       0.5840543778E-05       3    3    1         0.9056961119E-06      0.1538120623E-04
          0                 5           1             4    1     1      -0.4018637740E-06       3    5    1        -0.6366957450E-07      0.1108903366E-05

    ------------------------------------------------
       NWT REQUIRED            5 OUTER ITERATIONS 
       AND A TOTAL OF          7 INNER ITERATIONS.
    ------------------------------------------------

 NO OUTPUT CONTROL FOR STRESS PERIOD   35   TIME STEP    5
 
 WELLS WITH REDUCED PUMPING FOR STRESS PERIOD    35 TIME STEP     5
   LAY   ROW   COL         APPL.Q          ACT.Q        GW-HEAD       CELL-BOT
     1     3    50  -0.790054E+00  -0.368437E+00   0.534853E-03   0.000000E+00
     1     5    55  -0.790054E+00  -0.279320E+00   0.445191E-03   0.000000E+00
 
 
 SOLVING FOR HEAD 
                                                   Max.-Head-Change                         Max.-Flux-Residual
  Residual-Control   Outer-Iter.   Inner-Iter.     Column Row Layer    Maximum-Head-Change  Column Row Layer    Maximum-Flux-Residual          L2-NORM 
          0                 1           2             4    4     1      -0.9759403885E-02       6    3    1        -0.1258942172E-02      0.2132558297E-01
          0                 2           2             4    1     1       0.9393711388E-03       6    3    1         0.1258934039E-03      0.2066863211E-02
          0                 3           1             4    1     1      -0.8204868400E-04       6    3    1        -0.1133051691E-04      0.1877502256E-03
          0                 4           1             4    1     1       0.6398606982E-05       6    5    1         0.9074847043E-06      0.1542575199E-04
          0                 5           1             4    1     1      -0.4393137015E-06       6    5    1        -0.6378792605E-07      0.1114716226E-05

    ------------------------------------------------
       NWT REQUIRED            5 OUTER ITERATIONS 
       AND A TOTAL OF          7 INNER ITERATIONS.
    ------------------------------------------------

 NO OUTPUT CONTROL FOR STRESS PERIOD   35   TIME STEP    6
 
 WELLS WITH REDUCED PUMPING FOR STRESS PERIOD    35 TIME STEP     6
   LAY   ROW   COL         APPL.Q          ACT.Q        GW-HEAD       CELL-BOT
     1     3    50  -0.789955E+00  -0.368342E+00   0.534807E-03   0.000000E+00
     1     5    55  -0.789955E+00  -0.279238E+00   0.445145E-03   0.000000E+00
 
 
 SOLVING FOR HEAD 
                                                   Max.-Head-Change                         Max.-Flux-Residual
  Residual-Control   Outer-Iter.   Inner-Iter.     Column Row Layer    Maximum-Head-Change  Column Row Layer    Maximum-Flux-Residual          L2-NORM 
          0                 1           2             2    4     1      -0.1074349469E-01       4    3    1        -0.1267904431E-02      0.2135124782E-01
          0                 2           2             3    1     1       0.1033972796E-02       4    3    1         0.1267887313E-03      0.2069731816E-02
          0                 3           1             4    1     1      -0.9013581387E-04       4    3    1        -0.1141111309E-04      0.1880764091E-03
          0                 4           1             4    1     1       0.7015621809E-05       4    3    1         0.9140074475E-06      0.1547535189E-04
          0                 5           1             4    1     1      -0.4807582000E-06       4    3    1        -0.6425102228E-07      0.1120950672E-05

    ------------------------------------------------
       NWT REQUIRED            5 OUTER ITERATIONS 
       AND A TOTAL OF          7 INNER ITERATIONS.
    ------------------------------------------------

 NO OUTPUT CONTROL FOR STRESS PERIOD   35   TIME STEP    7
 
 WELLS WITH REDUCED PUMPING FOR STRESS PERIOD    35 TIME STEP     7
   LAY   ROW   COL         APPL.Q          ACT.Q        GW-HEAD       CELL-BOT
     1     3    50  -0.789909E+00  -0.368238E+00   0.534729E-03   0.000000E+00
     1     5    55  -0.789909E+00  -0.279148E+00   0.445073E-03   0.000000E+00
 
 
 SOLVING FOR HEAD 
                                                   Max.-Head-Change                         Max.-Flux-Residual
  Residual-Control   Outer-Iter.   Inner-Iter.     Column Row Layer    Maximum-Head-Change  Column Row Layer    Maximum-Flux-Residual          L2-NORM 
          0                 1           2             1    3     1      -0.1182684961E-01       2    3    1        -0.1270556365E-02      0.2136918903E-01
          0                 2           2             2    1     1       0.1137452211E-02       2    3    1         0.1270537479E-03      0.2071960726E-02
          0                 3           1             2    1     1      -0.9893145563E-04       2    3    1        -0.1143497881E-04      0.1883764271E-03
          0                 4           1             3    1     1       0.7682600993E-05       2    3    1         0.9158683305E-06      0.1552467774E-04
          0                 5           1             3    1     1      -0.5252813759E-06       2    3    1        -0.6438047961E-07      0.1127293891E-05

    ------------------------------------------------
       NWT REQUIRED            5 OUTER ITERATIONS 
       AND A TOTAL OF          7 INNER ITERATIONS.
    ------------------------------------------------

 NO OUTPUT CONTROL FOR STRESS PERIOD   35   TIME STEP    8
 
 WELLS WITH REDUCED PUMPING FOR STRESS PERIOD    35 TIME STEP     8
   LAY   ROW   COL         APPL.Q          ACT.Q        GW-HEAD       CELL-BOT
     1     3    50  -0.789930E+00  -0.368123E+00   0.534611E-03   0.000000E+00
     1     5    55  -0.789930E+00  -0.279048E+00   0.444969E-03   0.000000E+00
 
 
 SOLVING FOR HEAD 
                                                   Max.-Head-Change                         Max.-Flux-Residual
  Residual-Control   Outer-Iter.   Inner-Iter.     Column Row Layer    Maximum-Head-Change  Column Row Layer    Maximum-Flux-Residual          L2-NORM 
          0                 1           2             1    1     1      -0.1301182513E-01       1    3    1        -0.1272545317E-02      0.2138504713E-01
          0                 2           2             1    1     1       0.1251030538E-02       1    3    1         0.1272522624E-03      0.2073543387E-02
          0                 3           2             1    1     1      -0.1085700078E-03       1    3    1        -0.1145286155E-04      0.1885825428E-03
          0                 4           1             1    1     1       0.8411488340E-05       1    3    1         0.9173729723E-06      0.1556568127E-04
          0                 5           1             1    1     1      -0.5737296108E-06       1    3    1        -0.6449043610E-07      0.1132945650E-05

    ------------------------------------------------
       NWT REQUIRED            5 OUTER ITERATIONS 
       AND A TOTAL OF          8 INNER ITERATIONS.
    ------------------------------------------------

 NO OUTPUT CONTROL FOR STRESS PERIOD   35   TIME STEP    9
 
 WELLS WITH REDUCED PUMPING FOR STRESS PERIOD    35 TIME STEP     9
   LAY   ROW   COL         APPL.Q          ACT.Q        GW-HEAD       CELL-BOT
     1     3    50  -0.789967E+00  -0.367998E+00   0.534475E-03   0.000000E+00
     1     5    55  -0.789967E+00  -0.278940E+00   0.444850E-03   0.000000E+00
 
 
 SOLVING FOR HEAD 
                                                   Max.-Head-Change                         Max.-Flux-Residual
  Residual-Control   Outer-Iter.   Inner-Iter.     Column Row Layer    Maximum-Head-Change  Column Row Layer    Maximum-Flux-Residual          L2-NORM 
          0                 1           2             1    1     1      -0.1432255463E-01       1    3    1        -0.1269595324E-02      0.2139783874E-01
          0                 2           2             1    1     1       0.1374145593E-02       1    3    1         0.1269572171E-03      0.2075012788E-02
          0                 3           2             1    1     1      -0.1189822859E-03       1    3    1        -0.1142632165E-04      0.1887992599E-03
          0                 4           1             1    1     1       0.9195974523E-05       1    3    1         0.9152469715E-06      0.1560880212E-04
          0                 5           1             1    1     1      -0.6256592614E-06       1    4    1         0.6517275608E-07      0.1139009050E-05

    ------------------------------------------------
       NWT REQUIRED            5 OUTER ITERATIONS 
       AND A TOTAL OF          8 INNER ITERATIONS.
    ------------------------------------------------

 NO OUTPUT CONTROL FOR STRESS PERIOD   35   TIME STEP   10
 
 WELLS WITH REDUCED PUMPING FOR STRESS PERIOD    35 TIME STEP    10
   LAY   ROW   COL         APPL.Q          ACT.Q        GW-HEAD       CELL-BOT
     1     3    50  -0.789933E+00  -0.367860E+00   0.534360E-03   0.000000E+00
     1     5    55  -0.789933E+00  -0.278820E+00   0.444745E-03   0.000000E+00
 
 
 SOLVING FOR HEAD 
                                                   Max.-Head-Change                         Max.-Flux-Residual
  Residual-Control   Outer-Iter.   Inner-Iter.     Column Row Layer    Maximum-Head-Change  Column Row Layer    Maximum-Flux-Residual          L2-NORM 
          0                 1           2             1    1     1      -0.1575353780E-01       1    3    1        -0.1267501172E-02      0.2141172939E-01
          0                 2           2             1    1     1       0.1508154045E-02       1    3    1         0.1267477599E-03      0.2076167728E-02
          0                 3           2             1    1     1      -0.1302750561E-03       1    3    1        -0.1140748667E-04      0.1889563361E-03
          0                 4           1             1    1     1       0.1004315088E-04       1    5    1         0.9137380843E-06      0.1564511827E-04
          0                 5           1             1    1     1      -0.6814391688E-06       1    4    1         0.6677857911E-07      0.1144472217E-05

    ------------------------------------------------
       NWT REQUIRED            5 OUTER ITERATIONS 
       AND A TOTAL OF          8 INNER ITERATIONS.
    ------------------------------------------------

 NO OUTPUT CONTROL FOR STRESS PERIOD   35   TIME STEP   11
 
 WELLS WITH REDUCED PUMPING FOR STRESS PERIOD    35 TIME STEP    11
   LAY   ROW   COL         APPL.Q          ACT.Q        GW-HEAD       CELL-BOT
     1     3    50  -0.790026E+00  -0.367708E+00   0.534176E-03   0.000000E+00
     1     5    55  -0.790026E+00  -0.278689E+00   0.444586E-03   0.000000E+00
 
 
 SOLVING FOR HEAD 
                                                   Max.-Head-Change                         Max.-Flux-Residual
  Residual-Control   Outer-Iter.   Inner-Iter.     Column Row Layer    Maximum-Head-Change  Column Row Layer    Maximum-Flux-Residual          L2-NORM 
          0                 1           2             1    1     1      -0.1732146913E-01       1    3    1        -0.1266257103E-02      0.2142547740E-01
          0                 2           2             1    1     1       0.1654626156E-02       1    3    1         0.1266232301E-03      0.2077457194E-02
          0                 3           2             1    1     1      -0.1425801092E-03       1    3    1        -0.1139629757E-04      0.1891327276E-03
          0                 4           1             1    1     1       0.1096274280E-04       1    3    1         0.9128415890E-06      0.1568316730E-04
          0                 5           1             1    1     1      -0.7416772463E-06       1    4    1         0.6831192323E-07      0.1150059616E-05

    ------------------------------------------------
       NWT REQUIRED            5 OUTER ITERATIONS 
       AND A TOTAL OF          8 INNER ITERATIONS.
    ------------------------------------------------

 NO OUTPUT CONTROL FOR STRESS PERIOD   35   TIME STEP   12
 
 WELLS WITH REDUCED PUMPING FOR STRESS PERIOD    35 TIME STEP    12
   LAY   ROW   COL         APPL.Q          ACT.Q        GW-HEAD       CELL-BOT
     1     3    50  -0.790040E+00  -0.367543E+00   0.534012E-03   0.000000E+00
     1     5    55  -0.790040E+00  -0.278546E+00   0.444440E-03   0.000000E+00
 
 
 SOLVING FOR HEAD 
                                                   Max.-Head-Change                         Max.-Flux-Residual
  Residual-Control   Outer-Iter.   Inner-Iter.     Column Row Layer    Maximum-Head-Change  Column Row Layer    Maximum-Flux-Residual          L2-NORM 
          0                 1           2             1    1     1      -0.1904258792E-01       1    3    1        -0.1265411994E-02      0.2143815288E-01
          0                 2           2             1    1     1       0.1815064776E-02       1    3    1         0.1265385398E-03      0.2078740483E-02
          0                 3           2             1    1     1      -0.1560213390E-03       1    3    1        -0.1138869619E-04      0.1892822124E-03
          0                 4           1             1    1     1       0.1196369860E-04       1    3    1         0.9122324549E-06      0.1571578981E-04
          0                 5           1             1    1     1      -0.8069088805E-06       1    4    1         0.6977818501E-07      0.1155038040E-05

    ------------------------------------------------
       NWT REQUIRED            5 OUTER ITERATIONS 
       AND A TOTAL OF          8 INNER ITERATIONS.
    ------------------------------------------------

 NO OUTPUT CONTROL FOR STRESS PERIOD   35   TIME STEP   13
 
 WELLS WITH REDUCED PUMPING FOR STRESS PERIOD    35 TIME STEP    13
   LAY   ROW   COL         APPL.Q          ACT.Q        GW-HEAD       CELL-BOT
     1     3    50  -0.790040E+00  -0.367361E+00   0.533840E-03   0.000000E+00
     1     5    55  -0.790040E+00  -0.278388E+00   0.444287E-03   0.000000E+00
 
 
 SOLVING FOR HEAD 
                                                   Max.-Head-Change                         Max.-Flux-Residual
  Residual-Control   Outer-Iter.   Inner-Iter.     Column Row Layer    Maximum-Head-Change  Column Row Layer    Maximum-Flux-Residual          L2-NORM 
          0                 1           2             6    4     1      -0.2097982813E-01       1    3    1        -0.1264720423E-02      0.2147653078E-01
          0                 2           2             3    1     1       0.1995065634E-02       1    3    1         0.1264695527E-03      0.2080619567E-02
          0                 3           2             3    1     1      -0.1711814122E-03       1    3    1        -0.1138250441E-04      0.1892909894E-03
          0                 4           1             3    1     1       0.1309523882E-04       1    5    1         0.9117362296E-06      0.1572326638E-04
          0                 5           1             3    1     1      -0.8803832581E-06       1    4    1         0.7102332589E-07      0.1157414256E-05

    ------------------------------------------------
       NWT REQUIRED            5 OUTER ITERATIONS 
       AND A TOTAL OF          8 INNER ITERATIONS.
    ------------------------------------------------

 NO OUTPUT CONTROL FOR STRESS PERIOD   35   TIME STEP   14
 
 WELLS WITH REDUCED PUMPING FOR STRESS PERIOD    35 TIME STEP    14
   LAY   ROW   COL         APPL.Q          ACT.Q        GW-HEAD       CELL-BOT
     1     3    50  -0.790017E+00  -0.367162E+00   0.533662E-03   0.000000E+00
     1     5    55  -0.790017E+00  -0.278215E+00   0.444126E-03   0.000000E+00
 
 
 SOLVING FOR HEAD 
                                                   Max.-Head-Change                         Max.-Flux-Residual
  Residual-Control   Outer-Iter.   Inner-Iter.     Column Row Layer    Maximum-Head-Change  Column Row Layer    Maximum-Flux-Residual          L2-NORM 
          0                 1           2             1    4     1      -0.2322364438E-01       5    3    1        -0.1271547170E-02      0.2151715144E-01
          0                 2           2             1    1     1       0.2198571652E-02       5    3    1         0.1271517304E-03      0.2084857330E-02
          0                 3           2             1    1     1      -0.1881620261E-03       5    3    1        -0.1144393196E-04      0.1897140469E-03
          0                 4           1             1    1     1       0.1435230347E-04       5    3    1         0.9166561732E-06      0.1577597644E-04
          0                 5           1             1    1     1      -0.9615516535E-06      17    4    1         0.7098751098E-07      0.1163570975E-05

    ------------------------------------------------
       NWT REQUIRED            5 OUTER ITERATIONS 
       AND A TOTAL OF          8 INNER ITERATIONS.
    ------------------------------------------------

 NO OUTPUT CONTROL FOR STRESS PERIOD   35   TIME STEP   15
 
 WELLS WITH REDUCED PUMPING FOR STRESS PERIOD    35 TIME STEP    15
   LAY   ROW   COL         APPL.Q          ACT.Q        GW-HEAD       CELL-BOT
     1     3    50  -0.790017E+00  -0.366943E+00   0.533455E-03   0.000000E+00
     1     5    55  -0.790017E+00  -0.278026E+00   0.443941E-03   0.000000E+00
 
 
 SOLVING FOR HEAD 
                                                   Max.-Head-Change                         Max.-Flux-Residual
  Residual-Control   Outer-Iter.   Inner-Iter.     Column Row Layer    Maximum-Head-Change  Column Row Layer    Maximum-Flux-Residual          L2-NORM 
          0                 1           2             1    1     1      -0.2550690748E-01       1    3    1        -0.1278838445E-02      0.2154512162E-01
          0                 2           2             1    1     1       0.2418803722E-02       1    3    1         0.1278798099E-03      0.2088345061E-02
          0                 3           2             1    1     1      -0.2066111959E-03       1    3    1        -0.1150949296E-04      0.1900974800E-03
          0                 4           1             1    1     1       0.1572321394E-04       1    5    1         0.9219072119E-06      0.1582799809E-04
          0                 5           1             1    1     1      -0.1050088738E-05       2    4    1         0.7173198568E-07      0.1169501133E-05
          0                 6           1             1    1     1       0.6056194697E-07       2    4    1        -0.5734538178E-08      0.7465380100E-07

    ------------------------------------------------
       NWT REQUIRED            6 OUTER ITERATIONS 
       AND A TOTAL OF          9 INNER ITERATIONS.
    ------------------------------------------------

 NO OUTPUT CONTROL FOR STRESS PERIOD   35   TIME STEP   16
 
 WELLS WITH REDUCED PUMPING FOR STRESS PERIOD    35 TIME STEP    16
   LAY   ROW   COL         APPL.Q          ACT.Q        GW-HEAD       CELL-BOT
     1     3    50  -0.790017E+00  -0.366704E+00   0.533229E-03   0.000000E+00
     1     5    55  -0.790017E+00  -0.277819E+00   0.443739E-03   0.000000E+00
 
 
 SOLVING FOR HEAD 
                                                   Max.-Head-Change                         Max.-Flux-Residual
  Residual-Control   Outer-Iter.   Inner-Iter.     Column Row Layer    Maximum-Head-Change  Column Row Layer    Maximum-Flux-Residual          L2-NORM 
          0                 1           2             1    1     1      -0.2805823635E-01       1    5    1        -0.1276027109E-02      0.2156687898E-01
          0                 2           2             1    1     1       0.2655788636E-02       1    5    1         0.1275986867E-03      0.2090543544E-02
          0                 3           2             1    1     1      -0.2263527400E-03       1    5    1        -0.1148421741E-04      0.1903117684E-03
          0                 4           1             1    1     1       0.1718027791E-04       1    3    1         0.9198822823E-06      0.1586329823E-04
          0                 5           1             1    1     1      -0.1143145034E-05       1    4    1         0.7301635563E-07      0.1174108434E-05
          0                 6           1             1    1     1       0.6565476219E-07       2    4    1        -0.5852641038E-08      0.7513207892E-07

    ------------------------------------------------
       NWT REQUIRED            6 OUTER ITERATIONS 
       AND A TOTAL OF          9 INNER ITERATIONS.
    ------------------------------------------------

 NO OUTPUT CONTROL FOR STRESS PERIOD   35   TIME STEP   17
 
 WELLS WITH REDUCED PUMPING FOR STRESS PERIOD    35 TIME STEP    17
   LAY   ROW   COL         APPL.Q          ACT.Q        GW-HEAD       CELL-BOT
     1     3    50  -0.790034E+00  -0.366443E+00   0.532973E-03   0.000000E+00
     1     5    55  -0.790034E+00  -0.277592E+00   0.443512E-03   0.000000E+00
 
 
 SOLVING FOR HEAD 
                                                   Max.-Head-Change                         Max.-Flux-Residual
  Residual-Control   Outer-Iter.   Inner-Iter.     Column Row Layer    Maximum-Head-Change  Column Row Layer    Maximum-Flux-Residual          L2-NORM 
          0                 1           2             1    1     1      -0.3084525553E-01       1    5    1        -0.1274228779E-02      0.2158639443E-01
          0                 2           2             1    1     1       0.2914140139E-02       1    5    1         0.1274187581E-03      0.2092408026E-02
          0                 3           2             1    1     1      -0.2478184728E-03       1    5    1        -0.1146805392E-04      0.1904958300E-03
          0                 4           1             1    1     1       0.1875894863E-04       1    3    1         0.9185871654E-06      0.1589302649E-04
          0                 5           1             1    1     1      -0.1243082366E-05       2    4    1         0.7409124692E-07      0.1177561736E-05
          0                 6           1             1    1     1       0.7106465738E-07       2    4    1        -0.5957659255E-08      0.7549623619E-07

    ------------------------------------------------
       NWT REQUIRED            6 OUTER ITERATIONS 
       AND A TOTAL OF          9 INNER ITERATIONS.
    ------------------------------------------------

 NO OUTPUT CONTROL FOR STRESS PERIOD   35   TIME STEP   18
 
 WELLS WITH REDUCED PUMPING FOR STRESS PERIOD    35 TIME STEP    18
   LAY   ROW   COL         APPL.Q          ACT.Q        GW-HEAD       CELL-BOT
     1     3    50  -0.790026E+00  -0.366157E+00   0.532706E-03   0.000000E+00
     1     5    55  -0.790026E+00  -0.277344E+00   0.443272E-03   0.000000E+00
 
 
 SOLVING FOR HEAD 
                                                   Max.-Head-Change                         Max.-Flux-Residual
  Residual-Control   Outer-Iter.   Inner-Iter.     Column Row Layer    Maximum-Head-Change  Column Row Layer    Maximum-Flux-Residual          L2-NORM 
          0                 1           2             1    1     1      -0.3390275312E-01       1    5    1        -0.1273082530E-02      0.2160498575E-01
          0                 2           2             1    1     1       0.3197356472E-02       1    5    1         0.1273038658E-03      0.2094328345E-02
          0                 3           2             1    1     1      -0.2713140105E-03       1    5    1        -0.1145774797E-04      0.1906372207E-03
          0                 4           1             5    1     1       0.2048422363E-04       1    3    1         0.9177611915E-06      0.1591335679E-04
          0                 5           1             4    1     1      -0.1351338358E-05       2    4    1         0.7511723865E-07      0.1179764429E-05
          0                 6           1             1    1     1       0.7684490737E-07       2    4    1        -0.6056573909E-08      0.7574598716E-07

    ------------------------------------------------
       NWT REQUIRED            6 OUTER ITERATIONS 
       AND A TOTAL OF          9 INNER ITERATIONS.
    ------------------------------------------------

 NO OUTPUT CONTROL FOR STRESS PERIOD   35   TIME STEP   19
 
 WELLS WITH REDUCED PUMPING FOR STRESS PERIOD    35 TIME STEP    19
   LAY   ROW   COL         APPL.Q          ACT.Q        GW-HEAD       CELL-BOT
     1     3    50  -0.789983E+00  -0.365844E+00   0.532428E-03   0.000000E+00
     1     5    55  -0.789983E+00  -0.277073E+00   0.443023E-03   0.000000E+00
 
 
 SOLVING FOR HEAD 
                                                   Max.-Head-Change                         Max.-Flux-Residual
  Residual-Control   Outer-Iter.   Inner-Iter.     Column Row Layer    Maximum-Head-Change  Column Row Layer    Maximum-Flux-Residual          L2-NORM 
          0                 1           2             4    4     1      -0.3747034415E-01       1    5    1        -0.1272117066E-02      0.2165272413E-01
          0                 2           2             2    1     1       0.3527272561E-02       1    5    1         0.1272106977E-03      0.2096831268E-02
          0                 3           2             2    1     1      -0.2990489856E-03       1    5    1        -0.1144936956E-04      0.1906444820E-03
          0                 4           1             1    1     1       0.2253767959E-04       1    3    1         0.9170897144E-06      0.1591145652E-04
          0                 5           1             1    1     1      -0.1480473801E-05      32    4    1         0.7414303660E-07      0.1179326694E-05
          0                 6           1             1    1     1       0.8374997729E-07       1    4    1        -0.5877300424E-08      0.7578154816E-07

    ------------------------------------------------
       NWT REQUIRED            6 OUTER ITERATIONS 
       AND A TOTAL OF          9 INNER ITERATIONS.
    ------------------------------------------------

 NO OUTPUT CONTROL FOR STRESS PERIOD   35   TIME STEP   20
 
 WELLS WITH REDUCED PUMPING FOR STRESS PERIOD    35 TIME STEP    20
   LAY   ROW   COL         APPL.Q          ACT.Q        GW-HEAD       CELL-BOT
     1     3    50  -0.789976E+00  -0.365501E+00   0.532107E-03   0.000000E+00
     1     5    55  -0.789976E+00  -0.276776E+00   0.442736E-03   0.000000E+00
 
 
 SOLVING FOR HEAD 
                                                   Max.-Head-Change                         Max.-Flux-Residual
  Residual-Control   Outer-Iter.   Inner-Iter.     Column Row Layer    Maximum-Head-Change  Column Row Layer    Maximum-Flux-Residual          L2-NORM 
          0                 1           2             1    1     1      -0.4127327901E-01       3    5    1        -0.1281070187E-02      0.2169330824E-01
          0                 2           2             1    1     1       0.3885318707E-02       3    3    1         0.1281021874E-03      0.2101958796E-02
          0                 3           2             1    1     1      -0.3288004832E-03       3    5    1        -0.1152967366E-04      0.1911513290E-03
          0                 4           1             1    1     1       0.2472212998E-04       4    3    1         0.9235401777E-06      0.1596482791E-04
          0                 5           1             1    1     1      -0.1615097854E-05      30    4    1         0.7599439655E-07      0.1182877096E-05
          0                 6           1             1    1     1       0.9078597151E-07       7    4    1        -0.6044881928E-08      0.7603861054E-07

    ------------------------------------------------
       NWT REQUIRED            6 OUTER ITERATIONS 
       AND A TOTAL OF          9 INNER ITERATIONS.
    ------------------------------------------------

 NO OUTPUT CONTROL FOR STRESS PERIOD   35   TIME STEP   21
 
 WELLS WITH REDUCED PUMPING FOR STRESS PERIOD    35 TIME STEP    21
   LAY   ROW   COL         APPL.Q          ACT.Q        GW-HEAD       CELL-BOT
     1     3    50  -0.790000E+00  -0.365127E+00   0.531741E-03   0.000000E+00
     1     5    55  -0.790000E+00  -0.276453E+00   0.442412E-03   0.000000E+00
 
 
 SOLVING FOR HEAD 
                                                   Max.-Head-Change                         Max.-Flux-Residual
  Residual-Control   Outer-Iter.   Inner-Iter.     Column Row Layer    Maximum-Head-Change  Column Row Layer    Maximum-Flux-Residual          L2-NORM 
          0                 1           2             1    1     1      -0.4540074368E-01       1    5    1        -0.1283269145E-02      0.2171846361E-01
          0                 2           2             1    1     1       0.4268061192E-02       1    3    1         0.1283206464E-03      0.2104853074E-02
          0                 3           2             1    1     1      -0.3605772048E-03       1    5    1        -0.1154938776E-04      0.1914254774E-03
          0                 4           1             1    1     1       0.2704822649E-04       1    5    1         0.9250997408E-06      0.1599795687E-04
          0                 5           1             1    1     1      -0.1756044843E-05      30    4    1         0.7746124098E-07      0.1184196023E-05
          0                 6           1             1    1     1       0.9799248397E-07       7    4    1        -0.6138062503E-08      0.7610487863E-07

    ------------------------------------------------
       NWT REQUIRED            6 OUTER ITERATIONS 
       AND A TOTAL OF          9 INNER ITERATIONS.
    ------------------------------------------------

 NO OUTPUT CONTROL FOR STRESS PERIOD   35   TIME STEP   22
 
 WELLS WITH REDUCED PUMPING FOR STRESS PERIOD    35 TIME STEP    22
   LAY   ROW   COL         APPL.Q          ACT.Q        GW-HEAD       CELL-BOT
     1     3    50  -0.789995E+00  -0.364718E+00   0.531356E-03   0.000000E+00
     1     5    55  -0.789995E+00  -0.276100E+00   0.442069E-03   0.000000E+00
 
 
 SOLVING FOR HEAD 
                                                   Max.-Head-Change                         Max.-Flux-Residual
  Residual-Control   Outer-Iter.   Inner-Iter.     Column Row Layer    Maximum-Head-Change  Column Row Layer    Maximum-Flux-Residual          L2-NORM 
          0                 1           2             1    1     1      -0.4989412559E-01       1    5    1        -0.1280881573E-02      0.2173615269E-01
          0                 2           2             1    1     1       0.4683766539E-02       1    3    1         0.1280818483E-03      0.2106721280E-02
          0                 3           2             1    1     1      -0.3949919635E-03       1    5    1        -0.1152794107E-04      0.1915586439E-03
          0                 4           1             1    1     1       0.2955572266E-04       1    3    1         0.9233812150E-06      0.1601470775E-04
          0                 5           1             1    1     1      -0.1904288778E-05      32    4    1         0.7628062626E-07      0.1183125524E-05
          0                 6           1             1    1     1       0.1053266499E-06       7    4    1        -0.6222816040E-08      0.7595187682E-07

    ------------------------------------------------
       NWT REQUIRED            6 OUTER ITERATIONS 
       AND A TOTAL OF          9 INNER ITERATIONS.
    ------------------------------------------------

 NO OUTPUT CONTROL FOR STRESS PERIOD   35   TIME STEP   23
 
 WELLS WITH REDUCED PUMPING FOR STRESS PERIOD    35 TIME STEP    23
   LAY   ROW   COL         APPL.Q          ACT.Q        GW-HEAD       CELL-BOT
     1     3    50  -0.790014E+00  -0.364271E+00   0.530924E-03   0.000000E+00
     1     5    55  -0.790014E+00  -0.275715E+00   0.441686E-03   0.000000E+00
 
 
 SOLVING FOR HEAD 
                                                   Max.-Head-Change                         Max.-Flux-Residual
  Residual-Control   Outer-Iter.   Inner-Iter.     Column Row Layer    Maximum-Head-Change  Column Row Layer    Maximum-Flux-Residual          L2-NORM 
          0                 1           2             1    1     1      -0.5481930963E-01       1    5    1        -0.1279284314E-02      0.2174822076E-01
          0                 2           2             1    1     1       0.5139029120E-02       1    3    1         0.1279217078E-03      0.2107963046E-02
          0                 3           2             1    1     1      -0.4326381551E-03       1    5    1        -0.1151358167E-04      0.1916632799E-03
          0                 4           1             1    1     1       0.3229055276E-04       1    3    1         0.9222302637E-06      0.1603219034E-04
          0                 5           1             1    1     1      -0.2061505905E-05       7    4    1         0.7729752127E-07      0.1181296054E-05
          0                 6           1             1    1     1       0.1128125751E-06       7    4    1        -0.6305750588E-08      0.7569122704E-07

    ------------------------------------------------
       NWT REQUIRED            6 OUTER ITERATIONS 
       AND A TOTAL OF          9 INNER ITERATIONS.
    ------------------------------------------------

 NO OUTPUT CONTROL FOR STRESS PERIOD   35   TIME STEP   24
 
 WELLS WITH REDUCED PUMPING FOR STRESS PERIOD    35 TIME STEP    24
   LAY   ROW   COL         APPL.Q          ACT.Q        GW-HEAD       CELL-BOT
     1     3    50  -0.789996E+00  -0.363783E+00   0.530470E-03   0.000000E+00
     1     5    55  -0.789996E+00  -0.275295E+00   0.441281E-03   0.000000E+00
 
 
 SOLVING FOR HEAD 
                                                   Max.-Head-Change                         Max.-Flux-Residual
  Residual-Control   Outer-Iter.   Inner-Iter.     Column Row Layer    Maximum-Head-Change  Column Row Layer    Maximum-Flux-Residual          L2-NORM 
          0                 1           3             1    1     1      -0.6022495336E-01       1    2    1        -0.1277843148E-02      0.2175537196E-01
          0                 2           2             1    1     1       0.5638616926E-02       1    7    1         0.1277789000E-03      0.2108752126E-02
          0                 3           2             1    1     1      -0.4739163901E-03       1    7    1        -0.1150062142E-04      0.1917331217E-03
          0                 4           1             1    1     1       0.3528217682E-04       1    7    1         0.9211927012E-06      0.1604694967E-04
          0                 5           1             1    1     1      -0.2229252118E-05      30    4    1         0.7839646265E-07      0.1178015211E-05
          0                 6           1             1    1     1       0.1205178425E-06       9    4    1        -0.6351175585E-08      0.7526988281E-07

    ------------------------------------------------
       NWT REQUIRED            6 OUTER ITERATIONS 
       AND A TOTAL OF         10 INNER ITERATIONS.
    ------------------------------------------------

 NO OUTPUT CONTROL FOR STRESS PERIOD   35   TIME STEP   25
 
 WELLS WITH REDUCED PUMPING FOR STRESS PERIOD    35 TIME STEP    25
   LAY   ROW   COL         APPL.Q          ACT.Q        GW-HEAD       CELL-BOT
     1     3    50  -0.790008E+00  -0.363249E+00   0.529958E-03   0.000000E+00
     1     5    55  -0.790008E+00  -0.274837E+00   0.440829E-03   0.000000E+00
 
 
 SOLVING FOR HEAD 
                                                   Max.-Head-Change                         Max.-Flux-Residual
  Residual-Control   Outer-Iter.   Inner-Iter.     Column Row Layer    Maximum-Head-Change  Column Row Layer    Maximum-Flux-Residual          L2-NORM 
          0                 1           3             1    1     1      -0.6615775901E-01       1    7    1        -0.1276362249E-02      0.2175474991E-01
          0                 2           2             1    1     1       0.6186561181E-02       1    7    1         0.1276303641E-03      0.2108888496E-02
          0                 3           2             1    1     1      -0.5191559346E-03       1    7    1        -0.1148731564E-04      0.1917241709E-03
          0                 4           1             1    1     1       0.3854877586E-04       1    1    1         0.9201260269E-06      0.1605139439E-04
          0                 5           1             1    1     1      -0.2402912229E-05       9    4    1         0.7941428848E-07      0.1172534335E-05
          0                 6           1             1    1     1       0.1279001305E-06       9    4    1        -0.6454268231E-08      0.7464350002E-07

    ------------------------------------------------
       NWT REQUIRED            6 OUTER ITERATIONS 
       AND A TOTAL OF         10 INNER ITERATIONS.
    ------------------------------------------------

 NO OUTPUT CONTROL FOR STRESS PERIOD   35   TIME STEP   26
 
 WELLS WITH REDUCED PUMPING FOR STRESS PERIOD    35 TIME STEP    26
   LAY   ROW   COL         APPL.Q          ACT.Q        GW-HEAD       CELL-BOT
     1     3    50  -0.790005E+00  -0.362662E+00   0.529403E-03   0.000000E+00
     1     5    55  -0.790005E+00  -0.274336E+00   0.440340E-03   0.000000E+00
 
 
 SOLVING FOR HEAD 
                                                   Max.-Head-Change                         Max.-Flux-Residual
  Residual-Control   Outer-Iter.   Inner-Iter.     Column Row Layer    Maximum-Head-Change  Column Row Layer    Maximum-Flux-Residual          L2-NORM 
          0                 1           3             1    1     1      -0.7266790700E-01       1    7    1        -0.1274765787E-02      0.2174810811E-01
          0                 2           2             1    1     1       0.6787602788E-02       1    7    1         0.1274699938E-03      0.2108301171E-02
          0                 3           2             1    1     1      -0.5687421790E-03       1    7    1        -0.1147295119E-04      0.1916348998E-03
          0                 4           1             1    1     1       0.4211585124E-04       1    1    1         0.9189744539E-06      0.1604648871E-04
          0                 5           1             1    1     1      -0.2581840748E-05       9    4    1         0.8096594684E-07      0.1164091044E-05
          0                 6           1             1    1     1       0.1348157449E-06       9    4    1        -0.6556565069E-08      0.7372905100E-07

    ------------------------------------------------
       NWT REQUIRED            6 OUTER ITERATIONS 
       AND A TOTAL OF         10 INNER ITERATIONS.
    ------------------------------------------------

 NO OUTPUT CONTROL FOR STRESS PERIOD   35   TIME STEP   27
 
 WELLS WITH REDUCED PUMPING FOR STRESS PERIOD    35 TIME STEP    27
   LAY   ROW   COL         APPL.Q          ACT.Q        GW-HEAD       CELL-BOT
     1     3    50  -0.790001E+00  -0.362011E+00   0.528788E-03   0.000000E+00
     1     5    55  -0.790001E+00  -0.273784E+00   0.439801E-03   0.000000E+00
 
 
 SOLVING FOR HEAD 
                                                   Max.-Head-Change                         Max.-Flux-Residual
  Residual-Control   Outer-Iter.   Inner-Iter.     Column Row Layer    Maximum-Head-Change  Column Row Layer    Maximum-Flux-Residual          L2-NORM 
          0                 1           3             1    1     1      -0.7980972796E-01       1    7    1        -0.1273038368E-02      0.2173444904E-01
          0                 2           2             1    1     1       0.7446746036E-02       1    7    1         0.1272964421E-03      0.2107092917E-02
          0                 3           2             1    1     1      -0.6230801821E-03       1    7    1        -0.1145740745E-04      0.1915199244E-03
          0                 4           1             1    1     1       0.4600726369E-04       1    1    1         0.9177283253E-06      0.1604411806E-04
          0                 5           1             1    1     1      -0.2762330665E-05       9    4    1         0.8275168284E-07      0.1154106787E-05
          0                 6           1             1    1     1       0.1408727939E-06       9    4    1        -0.6663942287E-08      0.7267812345E-07

    ------------------------------------------------
       NWT REQUIRED            6 OUTER ITERATIONS 
       AND A TOTAL OF         10 INNER ITERATIONS.
    ------------------------------------------------

 NO OUTPUT CONTROL FOR STRESS PERIOD   35   TIME STEP   28
 
 WELLS WITH REDUCED PUMPING FOR STRESS PERIOD    35 TIME STEP    28
   LAY   ROW   COL         APPL.Q          ACT.Q        GW-HEAD       CELL-BOT
     1     3    50  -0.789986E+00  -0.361287E+00   0.528108E-03   0.000000E+00
     1     5    55  -0.789986E+00  -0.273170E+00   0.439205E-03   0.000000E+00
 
 
 SOLVING FOR HEAD 
                                                   Max.-Head-Change                         Max.-Flux-Residual
  Residual-Control   Outer-Iter.   Inner-Iter.     Column Row Layer    Maximum-Head-Change  Column Row Layer    Maximum-Flux-Residual          L2-NORM 
          0                 1           3             1    1     1      -0.8764229424E-01       1    7    1        -0.1271162547E-02      0.2171200546E-01
          0                 2           2             1    1     1       0.8169426688E-02       1    7    1         0.1271079543E-03      0.2105099715E-02
          0                 3           2             1    1     1      -0.6826048366E-03       1    7    1        -0.1144052715E-04      0.1913165240E-03
          0                 4           1             1    1     1       0.5024781920E-04       4    3    1         0.9167620867E-06      0.1603112648E-04
          0                 5           1             1    1     1      -0.2939882389E-05       9    4    1         0.8483017311E-07      0.1141414035E-05
          0                 6           1             1    1     1       0.1456146704E-06       9    4    1        -0.6776996742E-08      0.7145084754E-07

    ------------------------------------------------
       NWT REQUIRED            6 OUTER ITERATIONS 
       AND A TOTAL OF         10 INNER ITERATIONS.
    ------------------------------------------------

 NO OUTPUT CONTROL FOR STRESS PERIOD   35   TIME STEP   29
 
 WELLS WITH REDUCED PUMPING FOR STRESS PERIOD    35 TIME STEP    29
   LAY   ROW   COL         APPL.Q          ACT.Q        GW-HEAD       CELL-BOT
     1     3    50  -0.790008E+00  -0.360454E+00   0.527308E-03   0.000000E+00
     1     5    55  -0.790008E+00  -0.272463E+00   0.438505E-03   0.000000E+00
 
 
 SOLVING FOR HEAD 
                                                   Max.-Head-Change                         Max.-Flux-Residual
  Residual-Control   Outer-Iter.   Inner-Iter.     Column Row Layer    Maximum-Head-Change  Column Row Layer    Maximum-Flux-Residual          L2-NORM 
          0                 1           3             1    1     1      -0.9622975646E-01       1    7    1        -0.1269120011E-02      0.2168074753E-01
          0                 2           2             1    1     1       0.8961541044E-02       1    7    1         0.1269026877E-03      0.2102124502E-02
          0                 3           2             1    1     1      -0.7477814922E-03       3    2    1        -0.1142321787E-04      0.1910148194E-03
          0                 4           1             1    1     1       0.5486189360E-04       4    3    1         0.9164938817E-06      0.1600791189E-04
          0                 5           1             1    1     1      -0.3107865761E-05       9    4    1         0.8727444367E-07      0.1125544375E-05
          0                 6           1             1    1     1       0.1484860290E-06       9    4    1        -0.6895358950E-08      0.7003176601E-07

    ------------------------------------------------
       NWT REQUIRED            6 OUTER ITERATIONS 
       AND A TOTAL OF         10 INNER ITERATIONS.
    ------------------------------------------------

 OUTPUT CONTROL FOR STRESS PERIOD   35   TIME STEP   30
    PRINT HEAD FOR ALL LAYERS
    SAVE HEAD FOR ALL LAYERS
    PRINT BUDGET
    SAVE BUDGET
 
 WELLS WITH REDUCED PUMPING FOR STRESS PERIOD    35 TIME STEP    30
   LAY   ROW   COL         APPL.Q          ACT.Q        GW-HEAD       CELL-BOT
     1     3    50  -0.789977E+00  -0.359509E+00   0.526425E-03   0.000000E+00
     1     5    55  -0.789977E+00  -0.271660E+00   0.437728E-03   0.000000E+00

            WELLS   PERIOD   35   STEP  30
 WELL      1   LAYER   1   ROW     3   COL    50   RATE   -0.359509    
 WELL      2   LAYER   1   ROW     5   COL    55   RATE   -0.271660    
 

  HEAD DEP BOUNDS   PERIOD   35   STEP    30
 BOUNDARY      1   LAYER   1   ROW     1   COL   100   RATE    1.036309E-02
 BOUNDARY      2   LAYER   1   ROW     2   COL   100   RATE    1.034998E-02
 BOUNDARY      3   LAYER   1   ROW     3   COL   100   RATE    1.020545E-02
 BOUNDARY      4   LAYER   1   ROW     4   COL   100   RATE    6.764645E-03
 BOUNDARY      5   LAYER   1   ROW     5   COL   100   RATE    1.020545E-02
 BOUNDARY      6   LAYER   1   ROW     6   COL   100   RATE    1.034998E-02
 BOUNDARY      7   LAYER   1   ROW     7   COL   100   RATE    1.036309E-02



 STREAM LISTING     PERIOD     35   STEP       30

 LAYER ROW COL. STREAM  RCH.   FLOW INTO    STREAM     FLOW OUT OF   OVRLND.    DIRECT     STREAM      STREAM      STREAM     STREAM  STREAMBED   FLOW TO   CHNG. UNSAT. 
                SEG.NO.  NO.   STRM. RCH.    LOSS       STRM. RCH.   RUNOFF     PRECIP       ET         HEAD        DEPTH      WIDTH  CONDCTNC.   WAT. TAB.

   1    4    1     1     1    5.3000E-02  1.8175E-04   5.2818E-02  0.000E+00  0.000E+00  0.000E+00  1.40076E+02  2.264E-01  1.639E+00  2.502E-04  3.479E-04 -1.662E-04
   1    4    2     1     2    5.2818E-02  1.8144E-04   5.2637E-02  0.000E+00  0.000E+00  0.000E+00  1.39776E+02  2.261E-01  1.637E+00  2.499E-04  3.478E-04 -1.664E-04
   1    4    3     1     3    5.2637E-02  1.8114E-04   5.2456E-02  0.000E+00  0.000E+00  0.000E+00  1.39476E+02  2.258E-01  1.635E+00  2.496E-04  3.476E-04 -1.665E-04
   1    4    4     1     4    5.2456E-02  1.8083E-04   5.2275E-02  0.000E+00  0.000E+00  0.000E+00  1.39176E+02  2.255E-01  1.633E+00  2.492E-04  3.475E-04 -1.667E-04
   1    4    5     1     5    5.2275E-02  1.8052E-04   5.2094E-02  0.000E+00  0.000E+00  0.000E+00  1.38875E+02  2.253E-01  1.630E+00  2.489E-04  3.474E-04 -1.669E-04
   1    4    6     1     6    5.2094E-02  1.8022E-04   5.1914E-02  0.000E+00  0.000E+00  0.000E+00  1.38575E+02  2.250E-01  1.628E+00  2.486E-04  3.473E-04 -1.671E-04
   1    4    7     1     7    5.1914E-02  1.7991E-04   5.1734E-02  0.000E+00  0.000E+00  0.000E+00  1.38275E+02  2.247E-01  1.626E+00  2.483E-04  3.472E-04 -1.673E-04
   1    4    8     1     8    5.1734E-02  1.7960E-04   5.1555E-02  0.000E+00  0.000E+00  0.000E+00  1.37974E+02  2.244E-01  1.624E+00  2.479E-04  3.471E-04 -1.675E-04
   1    4    9     1     9    5.1555E-02  1.7929E-04   5.1375E-02  0.000E+00  0.000E+00  0.000E+00  1.37674E+02  2.241E-01  1.622E+00  2.476E-04  3.470E-04 -1.678E-04
   1    4   10     1    10    5.1375E-02  1.7899E-04   5.1196E-02  0.000E+00  0.000E+00  0.000E+00  1.37374E+02  2.238E-01  1.620E+00  2.473E-04  3.470E-04 -1.681E-04
   1    4   11     1    11    5.1196E-02  1.7868E-04   5.1018E-02  0.000E+00  0.000E+00  0.000E+00  1.37074E+02  2.235E-01  1.618E+00  2.470E-04  3.470E-04 -1.683E-04
   1    4   12     1    12    5.1018E-02  1.7837E-04   5.0839E-02  0.000E+00  0.000E+00  0.000E+00  1.36773E+02  2.232E-01  1.616E+00  2.466E-04  3.470E-04 -1.687E-04
   1    4   13     1    13    5.0839E-02  1.7807E-04   5.0661E-02  0.000E+00  0.000E+00  0.000E+00  1.36473E+02  2.229E-01  1.613E+00  2.463E-04  3.470E-04 -1.690E-04
   1    4   14     1    14    5.0661E-02  1.7776E-04   5.0483E-02  0.000E+00  0.000E+00  0.000E+00  1.36173E+02  2.226E-01  1.611E+00  2.460E-04  3.470E-04 -1.693E-04
   1    4   15     1    15    5.0483E-02  1.7746E-04   5.0306E-02  0.000E+00  0.000E+00  0.000E+00  1.35872E+02  2.223E-01  1.609E+00  2.457E-04  3.471E-04 -1.697E-04
   1    4   16     1    16    5.0306E-02  1.7715E-04   5.0129E-02  0.000E+00  0.000E+00  0.000E+00  1.35572E+02  2.220E-01  1.607E+00  2.453E-04  3.472E-04 -1.701E-04
   1    4   17     1    17    5.0129E-02  1.7684E-04   4.9952E-02  0.000E+00  0.000E+00  0.000E+00  1.35272E+02  2.217E-01  1.605E+00  2.450E-04  3.473E-04 -1.705E-04
   1    4   18     1    18    4.9952E-02  1.7654E-04   4.9775E-02  0.000E+00  0.000E+00  0.000E+00  1.34971E+02  2.214E-01  1.603E+00  2.447E-04  3.474E-04 -1.709E-04
   1    4   19     1    19    4.9775E-02  1.7623E-04   4.9599E-02  0.000E+00  0.000E+00  0.000E+00  1.34671E+02  2.211E-01  1.601E+00  2.444E-04  3.475E-04 -1.713E-04
   1    4   20     1    20    4.9599E-02  1.7592E-04   4.9423E-02  0.000E+00  0.000E+00  0.000E+00  1.34371E+02  2.209E-01  1.599E+00  2.440E-04  3.477E-04 -1.718E-04
   1    4   21     1    21    4.9423E-02  1.7562E-04   4.9248E-02  0.000E+00  0.000E+00  0.000E+00  1.34071E+02  2.206E-01  1.596E+00  2.437E-04  3.479E-04 -1.723E-04
   1    4   22     1    22    4.9248E-02  1.7531E-04   4.9072E-02  0.000E+00  0.000E+00  0.000E+00  1.33770E+02  2.203E-01  1.594E+00  2.434E-04  3.481E-04 -1.728E-04
   1    4   23     1    23    4.9072E-02  1.7501E-04   4.8897E-02  0.000E+00  0.000E+00  0.000E+00  1.33470E+02  2.200E-01  1.592E+00  2.431E-04  3.483E-04 -1.734E-04
   1    4   24     1    24    4.8897E-02  1.7470E-04   4.8723E-02  0.000E+00  0.000E+00  0.000E+00  1.33170E+02  2.197E-01  1.590E+00  2.427E-04  3.486E-04 -1.739E-04
   1    4   25     1    25    4.8723E-02  1.7439E-04   4.8548E-02  0.000E+00  0.000E+00  0.000E+00  1.32869E+02  2.194E-01  1.588E+00  2.424E-04  3.489E-04 -1.745E-04
   1    4   26     1    26    4.8548E-02  1.7409E-04   4.8374E-02  0.000E+00  0.000E+00  0.000E+00  1.32569E+02  2.191E-01  1.586E+00  2.421E-04  3.492E-04 -1.752E-04
   1    4   27     1    27    4.8374E-02  1.7378E-04   4.8200E-02  0.000E+00  0.000E+00  0.000E+00  1.32269E+02  2.188E-01  1.584E+00  2.418E-04  3.496E-04 -1.758E-04
   1    4   28     1    28    4.8200E-02  1.7348E-04   4.8027E-02  0.000E+00  0.000E+00  0.000E+00  1.31968E+02  2.185E-01  1.581E+00  2.414E-04  3.644E-04 -1.909E-04
   1    4   29     1    29    4.8027E-02  1.7317E-04   4.7854E-02  0.000E+00  0.000E+00  0.000E+00  1.31668E+02  2.182E-01  1.579E+00  2.411E-04  3.730E-04 -1.999E-04
   1    4   30     1    30    4.7854E-02  1.7286E-04   4.7681E-02  0.000E+00  0.000E+00  0.000E+00  1.31368E+02  2.179E-01  1.577E+00  2.408E-04  3.736E-04 -2.007E-04
   1    4   31     1    31    4.7681E-02  1.7256E-04   4.7508E-02  0.000E+00  0.000E+00  0.000E+00  1.31068E+02  2.176E-01  1.575E+00  2.405E-04  3.742E-04 -2.017E-04
   1    4   32     1    32    4.7508E-02  1.7225E-04   4.7336E-02  0.000E+00  0.000E+00  0.000E+00  1.30767E+02  2.173E-01  1.573E+00  2.401E-04  3.749E-04 -2.027E-04
   1    4   33     1    33    4.7336E-02  1.7195E-04   4.7164E-02  0.000E+00  0.000E+00  0.000E+00  1.30467E+02  2.170E-01  1.571E+00  2.398E-04  3.756E-04 -2.037E-04
   1    4   34     1    34    4.7164E-02  1.7164E-04   4.6992E-02  0.000E+00  0.000E+00  0.000E+00  1.30167E+02  2.167E-01  1.569E+00  2.395E-04  3.764E-04 -2.048E-04
   1    4   35     1    35    4.6992E-02  1.7134E-04   4.6821E-02  0.000E+00  0.000E+00  0.000E+00  1.29866E+02  2.164E-01  1.566E+00  2.392E-04  3.772E-04 -2.059E-04
   1    4   36     1    36    4.6821E-02  1.7103E-04   4.6650E-02  0.000E+00  0.000E+00  0.000E+00  1.29566E+02  2.161E-01  1.564E+00  2.388E-04  3.781E-04 -2.071E-04
   1    4   37     1    37    4.6650E-02  1.7072E-04   4.6479E-02  0.000E+00  0.000E+00  0.000E+00  1.29266E+02  2.158E-01  1.562E+00  2.385E-04  3.947E-04 -2.240E-04
   1    4   38     1    38    4.6479E-02  1.7042E-04   4.6309E-02  0.000E+00  0.000E+00  0.000E+00  1.28966E+02  2.155E-01  1.560E+00  2.382E-04  3.991E-04 -2.287E-04
   1    4   39     1    39    4.6309E-02  1.7011E-04   4.6139E-02  0.000E+00  0.000E+00  0.000E+00  1.28665E+02  2.152E-01  1.558E+00  2.378E-04  4.188E-04 -2.488E-04
   1    4   40     1    40    4.6139E-02  1.6981E-04   4.5969E-02  0.000E+00  0.000E+00  0.000E+00  1.28365E+02  2.149E-01  1.556E+00  2.375E-04  4.388E-04 -2.690E-04
   1    4   41     1    41    4.5969E-02  1.6950E-04   4.5800E-02  0.000E+00  0.000E+00  0.000E+00  1.28065E+02  2.146E-01  1.554E+00  2.372E-04  4.402E-04 -2.707E-04
   1    4   42     1    42    4.5800E-02  1.6920E-04   4.5630E-02  0.000E+00  0.000E+00  0.000E+00  1.27764E+02  2.143E-01  1.551E+00  2.369E-04  4.848E-04 -3.157E-04
   1    4   43     1    43    4.5630E-02  1.6889E-04   4.5461E-02  0.000E+00  0.000E+00  0.000E+00  1.27464E+02  2.140E-01  1.549E+00  2.365E-04  5.196E-04 -3.508E-04
   1    4   44     1    44    4.5461E-02  1.6859E-04   4.5293E-02  0.000E+00  0.000E+00  0.000E+00  1.27164E+02  2.138E-01  1.547E+00  2.362E-04  5.216E-04 -3.530E-04
   1    4   45     1    45    4.5293E-02  1.6828E-04   4.5125E-02  0.000E+00  0.000E+00  0.000E+00  1.26863E+02  2.135E-01  1.545E+00  2.359E-04  5.918E-04 -4.235E-04
   1    4   46     1    46    4.5125E-02  1.6798E-04   4.4957E-02  0.000E+00  0.000E+00  0.000E+00  1.26563E+02  2.132E-01  1.543E+00  2.355E-04  6.318E-04 -4.639E-04
   1    4   47     1    47    4.4957E-02  1.6767E-04   4.4789E-02  0.000E+00  0.000E+00  0.000E+00  1.26263E+02  2.129E-01  1.541E+00  2.352E-04  6.603E-04 -4.927E-04
   1    4   48     1    48    4.4789E-02  1.6737E-04   4.4622E-02  0.000E+00  0.000E+00  0.000E+00  1.25963E+02  2.126E-01  1.539E+00  2.349E-04  7.113E-04 -5.440E-04
   1    4   49     1    49    4.4622E-02  1.6706E-04   4.4455E-02  0.000E+00  0.000E+00  0.000E+00  1.25662E+02  2.123E-01  1.536E+00  2.346E-04  7.833E-04 -6.163E-04
   1    4   50     1    50    4.4455E-02  1.6676E-04   4.4288E-02  0.000E+00  0.000E+00  0.000E+00  1.25362E+02  2.120E-01  1.534E+00  2.342E-04  9.419E-04 -7.752E-04
   1    4   51     1    51    4.4288E-02  1.6645E-04   4.4121E-02  0.000E+00  0.000E+00  0.000E+00  1.25062E+02  2.117E-01  1.532E+00  2.339E-04  9.231E-04 -7.567E-04
   1    4   52     1    52    4.4121E-02  1.6615E-04   4.3955E-02  0.000E+00  0.000E+00  0.000E+00  1.24761E+02  2.114E-01  1.530E+00  2.336E-04  9.168E-04 -7.507E-04
   1    4   53     1    53    4.3955E-02  1.6584E-04   4.3789E-02  0.000E+00  0.000E+00  0.000E+00  1.24461E+02  2.111E-01  1.528E+00  2.332E-04  9.162E-04 -7.504E-04
   1    4   54     1    54    4.3789E-02  1.6554E-04   4.3624E-02  0.000E+00  0.000E+00  0.000E+00  1.24161E+02  2.108E-01  1.526E+00  2.329E-04  9.211E-04 -7.556E-04
   1    4   55     1    55    4.3624E-02  1.6523E-04   4.3459E-02  0.000E+00  0.000E+00  0.000E+00  1.23860E+02  2.105E-01  1.523E+00  2.326E-04  9.372E-04 -7.720E-04
   1    4   56     1    56    4.3459E-02  1.6493E-04   4.3294E-02  0.000E+00  0.000E+00  0.000E+00  1.23560E+02  2.102E-01  1.521E+00  2.322E-04  8.053E-04 -6.404E-04
   1    4   57     1    57    4.3294E-02  1.6462E-04   4.3129E-02  0.000E+00  0.000E+00  0.000E+00  1.23260E+02  2.099E-01  1.519E+00  2.319E-04  7.105E-04 -5.459E-04
   1    4   58     1    58    4.3129E-02  1.6432E-04   4.2965E-02  0.000E+00  0.000E+00  0.000E+00  1.22960E+02  2.096E-01  1.517E+00  2.316E-04  6.779E-04 -5.137E-04
   1    4   59     1    59    4.2965E-02  1.6401E-04   4.2801E-02  0.000E+00  0.000E+00  0.000E+00  1.22659E+02  2.093E-01  1.515E+00  2.312E-04  6.293E-04 -4.654E-04
   1    4   60     1    60    4.2801E-02  1.6371E-04   4.2637E-02  0.000E+00  0.000E+00  0.000E+00  1.22359E+02  2.090E-01  1.513E+00  2.309E-04  6.156E-04 -4.519E-04
   1    4   61     1    61    4.2637E-02  1.6340E-04   4.2474E-02  0.000E+00  0.000E+00  0.000E+00  1.22059E+02  2.087E-01  1.510E+00  2.306E-04  5.578E-04 -3.945E-04
   1    4   62     1    62    4.2474E-02  1.6310E-04   4.2310E-02  0.000E+00  0.000E+00  0.000E+00  1.21758E+02  2.084E-01  1.508E+00  2.302E-04  5.184E-04 -3.553E-04
   1    4   63     1    63    4.2310E-02  1.6279E-04   4.2148E-02  0.000E+00  0.000E+00  0.000E+00  1.21458E+02  2.081E-01  1.506E+00  2.299E-04  5.120E-04 -3.493E-04
   1    4   64     1    64    4.2148E-02  1.6249E-04   4.1985E-02  0.000E+00  0.000E+00  0.000E+00  1.21158E+02  2.078E-01  1.504E+00  2.296E-04  4.613E-04 -2.989E-04
   1    4   65     1    65    4.1985E-02  1.6219E-04   4.1823E-02  0.000E+00  0.000E+00  0.000E+00  1.20857E+02  2.075E-01  1.502E+00  2.292E-04  4.384E-04 -2.763E-04
   1    4   66     1    66    4.1823E-02  1.6188E-04   4.1661E-02  0.000E+00  0.000E+00  0.000E+00  1.20557E+02  2.072E-01  1.499E+00  2.289E-04  4.376E-04 -2.757E-04
   1    4   67     1    67    4.1661E-02  1.6158E-04   4.1500E-02  0.000E+00  0.000E+00  0.000E+00  1.20257E+02  2.069E-01  1.497E+00  2.286E-04  4.178E-04 -2.563E-04
   1    4   68     1    68    4.1500E-02  1.6127E-04   4.1338E-02  0.000E+00  0.000E+00  0.000E+00  1.19957E+02  2.066E-01  1.495E+00  2.283E-04  3.762E-04 -2.150E-04
   1    4   69     1    69    4.1338E-02  1.6097E-04   4.1177E-02  0.000E+00  0.000E+00  0.000E+00  1.19656E+02  2.063E-01  1.493E+00  2.279E-04  3.783E-04 -2.174E-04
   1    4   70     1    70    4.1177E-02  1.6066E-04   4.1017E-02  0.000E+00  0.000E+00  0.000E+00  1.19356E+02  2.060E-01  1.491E+00  2.276E-04  3.779E-04 -2.173E-04
   1    4   71     1    71    4.1017E-02  1.6036E-04   4.0856E-02  0.000E+00  0.000E+00  0.000E+00  1.19056E+02  2.057E-01  1.489E+00  2.273E-04  3.776E-04 -2.173E-04
   1    4   72     1    72    4.0856E-02  1.6006E-04   4.0696E-02  0.000E+00  0.000E+00  0.000E+00  1.18755E+02  2.054E-01  1.486E+00  2.269E-04  3.774E-04 -2.174E-04
   1    4   73     1    73    4.0696E-02  1.5975E-04   4.0536E-02  0.000E+00  0.000E+00  0.000E+00  1.18455E+02  2.050E-01  1.484E+00  2.266E-04  3.773E-04 -2.175E-04
   1    4   74     1    74    4.0536E-02  1.5945E-04   4.0377E-02  0.000E+00  0.000E+00  0.000E+00  1.18155E+02  2.047E-01  1.482E+00  2.262E-04  3.772E-04 -2.178E-04
   1    4   75     1    75    4.0377E-02  1.5914E-04   4.0218E-02  0.000E+00  0.000E+00  0.000E+00  1.17854E+02  2.044E-01  1.480E+00  2.259E-04  3.773E-04 -2.182E-04
   1    4   76     1    76    4.0218E-02  1.5884E-04   4.0059E-02  0.000E+00  0.000E+00  0.000E+00  1.17554E+02  2.041E-01  1.478E+00  2.256E-04  3.775E-04 -2.187E-04
   1    4   77     1    77    4.0059E-02  1.5853E-04   3.9901E-02  0.000E+00  0.000E+00  0.000E+00  1.17254E+02  2.038E-01  1.475E+00  2.252E-04  3.778E-04 -2.193E-04
   1    4   78     1    78    3.9901E-02  1.5823E-04   3.9742E-02  0.000E+00  0.000E+00  0.000E+00  1.16954E+02  2.035E-01  1.473E+00  2.249E-04  3.645E-04 -2.063E-04
   1    4   79     1    79    3.9742E-02  1.5793E-04   3.9584E-02  0.000E+00  0.000E+00  0.000E+00  1.16653E+02  2.032E-01  1.471E+00  2.246E-04  3.573E-04 -1.995E-04
   1    4   80     1    80    3.9584E-02  1.5762E-04   3.9427E-02  0.000E+00  0.000E+00  0.000E+00  1.16353E+02  2.029E-01  1.469E+00  2.242E-04  3.580E-04 -2.004E-04
   1    4   81     1    81    3.9427E-02  1.5732E-04   3.9269E-02  0.000E+00  0.000E+00  0.000E+00  1.16053E+02  2.026E-01  1.467E+00  2.239E-04  3.587E-04 -2.014E-04
   1    4   82     1    82    3.9269E-02  1.5702E-04   3.9112E-02  0.000E+00  0.000E+00  0.000E+00  1.15752E+02  2.023E-01  1.464E+00  2.236E-04  3.595E-04 -2.025E-04
   1    4   83     1    83    3.9112E-02  1.5671E-04   3.8956E-02  0.000E+00  0.000E+00  0.000E+00  1.15452E+02  2.020E-01  1.462E+00  2.232E-04  3.604E-04 -2.037E-04
   1    4   84     1    84    3.8956E-02  1.5641E-04   3.8799E-02  0.000E+00  0.000E+00  0.000E+00  1.15152E+02  2.017E-01  1.460E+00  2.229E-04  3.614E-04 -2.050E-04
   1    4   85     1    85    3.8799E-02  1.5610E-04   3.8643E-02  0.000E+00  0.000E+00  0.000E+00  1.14851E+02  2.014E-01  1.458E+00  2.226E-04  3.625E-04 -2.064E-04
   1    4   86     1    86    3.8643E-02  1.5580E-04   3.8487E-02  0.000E+00  0.000E+00  0.000E+00  1.14551E+02  2.011E-01  1.456E+00  2.222E-04  3.636E-04 -2.079E-04
   1    4   87     1    87    3.8487E-02  1.5550E-04   3.8332E-02  0.000E+00  0.000E+00  0.000E+00  1.14251E+02  2.008E-01  1.453E+00  2.219E-04  3.649E-04 -2.095E-04
   1    4   88     1    88    3.8332E-02  1.5519E-04   3.8177E-02  0.000E+00  0.000E+00  0.000E+00  1.13950E+02  2.005E-01  1.451E+00  2.215E-04  3.663E-04 -2.112E-04
   1    4   89     1    89    3.8177E-02  1.5489E-04   3.8022E-02  0.000E+00  0.000E+00  0.000E+00  1.13650E+02  2.002E-01  1.449E+00  2.212E-04  3.678E-04 -2.130E-04
   1    4   90     1    90    3.8022E-02  1.5459E-04   3.7867E-02  0.000E+00  0.000E+00  0.000E+00  1.13350E+02  1.999E-01  1.447E+00  2.209E-04  3.694E-04 -2.149E-04
   1    4   91     1    91    3.7867E-02  1.5428E-04   3.7713E-02  0.000E+00  0.000E+00  0.000E+00  1.13050E+02  1.996E-01  1.445E+00  2.205E-04  3.711E-04 -2.169E-04
   1    4   92     1    92    3.7713E-02  1.5398E-04   3.7559E-02  0.000E+00  0.000E+00  0.000E+00  1.12749E+02  1.993E-01  1.442E+00  2.202E-04  3.729E-04 -2.190E-04
   1    4   93     1    93    3.7559E-02  1.5367E-04   3.7405E-02  0.000E+00  0.000E+00  0.000E+00  1.12449E+02  1.990E-01  1.440E+00  2.199E-04  3.749E-04 -2.212E-04
   1    4   94     1    94    3.7405E-02  1.5337E-04   3.7252E-02  0.000E+00  0.000E+00  0.000E+00  1.12149E+02  1.987E-01  1.438E+00  2.195E-04  3.769E-04 -2.235E-04
   1    4   95     1    95    3.7252E-02  1.5307E-04   3.7099E-02  0.000E+00  0.000E+00  0.000E+00  1.11848E+02  1.984E-01  1.436E+00  2.192E-04  3.789E-04 -2.259E-04
   1    4   96     1    96    3.7099E-02  1.5276E-04   3.6946E-02  0.000E+00  0.000E+00  0.000E+00  1.11548E+02  1.980E-01  1.433E+00  2.188E-04  3.811E-04 -2.284E-04
   1    4   97     1    97    3.6946E-02  1.5246E-04   3.6794E-02  0.000E+00  0.000E+00  0.000E+00  1.11248E+02  1.977E-01  1.431E+00  2.185E-04  3.833E-04 -2.309E-04
   1    4   98     1    98    3.6794E-02  1.5216E-04   3.6641E-02  0.000E+00  0.000E+00  0.000E+00  1.10947E+02  1.974E-01  1.429E+00  2.182E-04  3.855E-04 -2.334E-04
   1    4   99     1    99    3.6641E-02  1.5185E-04   3.6490E-02  0.000E+00  0.000E+00  0.000E+00  1.10647E+02  1.971E-01  1.427E+00  2.178E-04  3.878E-04 -2.360E-04
   1    4  100     1   100    3.6490E-02  1.5155E-04   3.6338E-02  0.000E+00  0.000E+00  0.000E+00  1.10347E+02  1.968E-01  1.425E+00  2.175E-04  3.901E-04 -2.386E-04



1
  VOLUMETRIC BUDGET FOR UNSATURATED ZONE BENEATH STREAMS AT END OF TIME STEP    30 STRESS PERIOD  35
  ------------------------------------------------------------------------------------------------

    CUMULATIVE VOLUMES             L**3    RATES FOR THIS TIME STEP         L**3/T
    ------------------                     ------------------------


          STREAM LOSS =     30216106.0000            STREAM LOSS =        1.6662E-02
    CHANGE IN STORAGE =      1006016.0000      CHANGE IN STORAGE =       -2.7722E-02
       RECHARGE TO GW =     29217652.0000         RECHARGE TO GW =        4.4380E-02

             TOTAL IN =     30216106.0000               TOTAL IN =        4.4384E-02

            TOTAL OUT =     30223668.0000              TOTAL OUT =        4.4380E-02

             IN - OUT =        -7562.0000               IN - OUT =        3.9935E-06

  PERCENT DISCREPANCY =           -0.01      PERCENT DISCREPANCY =             0.00



1
              HEAD IN LAYER   1 AT END OF TIME STEP  30 IN STRESS PERIOD   35
  ---------------------------------------------------------------------------

          1      2      3      4      5      6      7      8      9     10
         11     12     13     14     15     16     17     18     19     20
         21     22     23     24     25     26     27     28     29     30
         31     32     33     34     35     36     37     38     39     40
         41     42     43     44     45     46     47     48     49     50
         51     52     53     54     55     56     57     58     59     60
         61     62     63     64     65     66     67     68     69     70
         71     72     73     74     75     76     77     78     79     80
         81     82     83     84     85     86     87     88     89     90
         91     92     93     94     95     96     97     98     99    100
 .........................................................................
   1    90.2   90.1   90.1   89.9   89.8   89.6   89.3   89.0   88.7   88.3
        87.9   87.5   87.0   86.4   85.8   85.2   84.5   83.8   83.0   82.2
        81.3   80.4   79.4   78.4   77.3   76.2   75.0   73.7   72.4   71.0
        69.5   67.9   66.3   64.6   62.8   60.9   58.9   56.8   54.5   52.1
        49.6   46.9   43.9   40.8   37.3   33.4   29.0   23.7   17.3   10.0
         9.0    9.3    9.7   10.3   12.3   16.5   20.8   24.8   28.4   31.6
        34.5   37.1   39.6   41.8   43.9   45.8   47.7   49.4   51.0   52.5
        54.0   55.3   56.6   57.8   59.0   60.1   61.1   62.1   63.0   63.9
        64.8   65.6   66.3   67.0   67.7   68.4   69.0   69.6   70.1   70.7
        71.2   71.7   72.1   72.6   73.0   73.4   73.8   74.2   74.6   75.0
   2    90.2   90.1   90.1   89.9   89.8   89.6   89.3   89.0   88.7   88.3
        87.9   87.5   87.0   86.4   85.8   85.2   84.5   83.8   83.0   82.2
        81.3   80.4   79.4   78.4   77.3   76.2   75.0   73.7   72.4   71.0
        69.5   67.9   66.3   64.6   62.8   60.9   58.9   56.8   54.5   52.1
        49.6   46.9   43.9   40.8   37.3   33.4   29.0   23.7   17.0    7.6
         8.7    9.3    9.6   10.0   11.6   16.2   20.7   24.8   28.4   31.6
        34.5   37.1   39.6   41.8   43.9   45.8   47.7   49.4   51.0   52.5
        54.0   55.3   56.6   57.8   59.0   60.1   61.1   62.1   63.0   63.9
        64.8   65.6   66.3   67.0   67.7   68.4   69.0   69.6   70.1   70.7
        71.2   71.7   72.1   72.6   73.0   73.4   73.8   74.2   74.6   75.0
   3    90.2   90.1   90.1   89.9   89.8   89.6   89.3   89.0   88.7   88.3
        87.9   87.5   87.0   86.4   85.9   85.2   84.5   83.8   83.0   82.2
        81.3   80.4   79.4   78.4   77.3   76.2   75.0   73.7   72.4   71.0
        69.5   67.9   66.3   64.6   62.8   60.9   58.9   56.8   54.5   52.1
        49.6   46.9   43.9   40.8   37.3   33.4   29.0   23.8   16.7    0.0
         8.4    9.4    9.4    9.3    9.9   15.6   20.6   24.8   28.4   31.6
        34.5   37.1   39.6   41.8   43.9   45.8   47.7   49.4   51.0   52.5
        54.0   55.3   56.6   57.8   59.0   60.1   61.1   62.1   63.0   63.9
        64.8   65.6   66.3   67.0   67.7   68.4   69.0   69.6   70.1   70.7
        71.2   71.7   72.1   72.6   73.0   73.4   73.8   74.2   74.6   75.0
   4    90.2   90.1   90.1   89.9   89.8   89.6   89.3   89.0   88.7   88.3
        87.9   87.5   87.0   86.4   85.9   85.2   84.5   83.8   83.0   82.2
        81.3   80.4   79.4   78.4   77.3   76.2   75.0   73.7   72.4   71.0
        69.5   67.9   66.3   64.6   62.8   60.9   58.9   56.8   54.5   52.1
        49.6   46.9   43.9   40.8   37.3   33.4   29.1   24.0   17.4    7.8
         9.3    9.6    9.3    8.6    6.8   14.9   20.4   24.7   28.4   31.6
        34.5   37.1   39.6   41.8   43.9   45.8   47.7   49.4   51.0   52.5
        54.0   55.3   56.6   57.8   59.0   60.1   61.1   62.1   63.0   63.9
        64.8   65.6   66.3   67.0   67.7   68.4   69.0   69.6   70.1   70.7
        71.2   71.7   72.1   72.6   73.0   73.4   73.8   74.2   74.6   75.0
   5    90.2   90.1   90.1   89.9   89.8   89.6   89.3   89.0   88.7   88.3
        87.9   87.5   87.0   86.4   85.9   85.2   84.5   83.8   83.0   82.2
        81.3   80.4   79.4   78.4   77.3   76.2   75.0   73.7   72.4   71.0
        69.5   67.9   66.3   64.6   62.8   60.9   58.9   56.8   54.5   52.1
        49.6   46.9   43.9   40.8   37.3   33.4   29.1   24.1   18.2   11.4
        10.2    9.7    9.2    7.8    0.0   14.2   20.3   24.7   28.4   31.6
        34.5   37.1   39.6   41.8   43.9   45.8   47.7   49.4   51.0   52.5
        54.0   55.3   56.6   57.8   59.0   60.1   61.1   62.1   63.0   63.9
        64.8   65.6   66.3   67.0   67.7   68.4   69.0   69.6   70.1   70.7
        71.2   71.7   72.1   72.6   73.0   73.4   73.8   74.2   74.6   75.0
   6    90.2   90.1   90.1   89.9   89.8   89.6   89.3   89.0   88.7   88.3
        87.9   87.5   87.0   86.4   85.8   85.2   84.5   83.8   83.0   82.2
        81.3   80.4   79.4   78.4   77.3   76.2   75.0   73.7   72.4   71.0
        69.5   67.9   66.3   64.6   62.8   60.9   58.9   56.8   54.5   52.1
        49.6   46.9   43.9   40.8   37.3   33.5   29.2   24.3   18.9   13.4
        11.0   10.0    9.2    8.1    6.6   14.5   20.2   24.6   28.3   31.6
        34.5   37.1   39.6   41.8   43.9   45.8   47.7   49.4   51.0   52.5
        54.0   55.3   56.6   57.8   59.0   60.1   61.1   62.1   63.0   63.9
        64.8   65.6   66.3   67.0   67.7   68.4   69.0   69.6   70.1   70.7
        71.2   71.7   72.1   72.6   73.0   73.4   73.8   74.2   74.6   75.0
   7    90.2   90.1   90.1   89.9   89.8   89.6   89.3   89.0   88.7   88.3
        87.9   87.5   87.0   86.4   85.8   85.2   84.5   83.8   83.0   82.2
        81.3   80.4   79.4   78.4   77.3   76.2   75.0   73.7   72.4   71.0
        69.5   67.9   66.3   64.6   62.8   60.9   58.9   56.8   54.5   52.1
        49.6   46.9   43.9   40.8   37.3   33.5   29.2   24.4   19.2   14.2
        11.5   10.1    9.2    8.3    8.7   14.8   20.2   24.6   28.3   31.6
        34.5   37.1   39.6   41.8   43.9   45.8   47.7   49.4   51.0   52.5
        54.0   55.3   56.6   57.8   59.0   60.1   61.1   62.1   63.0   63.9
        64.8   65.6   66.3   67.0   67.7   68.4   69.0   69.6   70.1   70.7
        71.2   71.7   72.1   72.6   73.0   73.4   73.8   74.2   74.6   75.0

 HEAD WILL BE SAVED ON UNIT   51 AT END OF TIME STEP   30, STRESS PERIOD   35
1
  VOLUMETRIC BUDGET FOR ENTIRE MODEL AT END OF TIME STEP   30, STRESS PERIOD  35
  ------------------------------------------------------------------------------

     CUMULATIVE VOLUMES      L**3       RATES FOR THIS TIME STEP      L**3/T
     ------------------                 ------------------------

           IN:                                      IN:
           ---                                      ---
             STORAGE     =   106009784.0000               STORAGE     =           0.5182
       CONSTANT HEAD     =           0.0000         CONSTANT HEAD     =           0.0000
               WELLS     =           0.0000                 WELLS     =           0.0000
     HEAD DEP BOUNDS     =      895923.5000       HEAD DEP BOUNDS     =       6.8602E-02
      STREAM LEAKAGE     =    29217194.0000        STREAM LEAKAGE     =       4.4380E-02

                TOTAL IN =   136122896.0000                  TOTAL IN =           0.6312

          OUT:                                     OUT:
          ----                                     ----
             STORAGE     =     3027682.5000               STORAGE     =           0.0000
       CONSTANT HEAD     =           0.0000         CONSTANT HEAD     =           0.0000
               WELLS     =   116735888.0000                 WELLS     =           0.6312
     HEAD DEP BOUNDS     =    16359348.0000       HEAD DEP BOUNDS     =           0.0000
      STREAM LEAKAGE     =           0.0000        STREAM LEAKAGE     =           0.0000

               TOTAL OUT =   136122912.0000                 TOTAL OUT =           0.6312

                IN - OUT =         -16.0000                  IN - OUT =           0.0000

     PERCENT DISCREPANCY =          -0.00         PERCENT DISCREPANCY =           0.00






         TIME SUMMARY AT END OF TIME STEP   30 IN STRESS PERIOD   35
                    SECONDS     MINUTES      HOURS       DAYS        YEARS
                    -----------------------------------------------------------
   TIME STEP LENGTH 2.49961E+05  4166.0      69.434      2.8931     7.92080E-03
 STRESS PERIOD TIME 2.59200E+06  43200.      720.00      30.000     8.21355E-02
         TOTAL TIME 9.07200E+07 1.51200E+06  25200.      1050.0      2.8747    
1
1
                            STRESS PERIOD NO.   36, LENGTH =   2592000.    
                            -----------------------------------------------

                              NUMBER OF TIME STEPS =    30

                               MULTIPLIER FOR DELT =     1.100

                            INITIAL TIME STEP SIZE =   15757.40    

 REUSING NON-PARAMETER WELLS FROM LAST STRESS PERIOD

      1 WELL 

 REUSING NON-PARAMETER GHB CELLS FROM LAST STRESS PERIOD

      7 GHB CELLS



 CLASSIFICATION & COUNT OF STREAM SEGMENTS BASED ON SOURCE OF INFLOW:

                HEADWATER     DIVERSION     RECEIVES TRIBUTARY FLOW
                ---------     ---------     -----------------------
                     1              0               0



                    INPUT DATA FOR EACH STREAM SEGMENT
 ---------------------------------------------------------------------------------------------

 SEGMENT    SEG.     INFLOW   OVERLAND   STREAM    STREAM   ICALC  OUTFLOW  DIVERSION PRIORITY
    NO.    LENGTH     RATE     RUNOFF      ET       PPT.    METH.  TO SEG.  FROM SEG.    NO.

      1  2.000E+04 1.600E-02 0.000E+00 0.000E+00 0.000E+00    2        0        0        0


         STREAMBED PROPERTIES AND STREAM DIMENSIONS

 SEGMENT     BED HYD. COND.      BED THICKNESS     ELEV.-TOP OF BED     WIDTH OF STREAM     DEPTH OF STREAM    STREAM ROUGHNESS
    No.     UPPER     LOWER     UPPER     LOWER     UPPER     LOWER     UPPER     LOWER     UPPER     LOWER   CHANNEL      BANK

     1  3.500E-07 3.500E-07                                                                                 3.000E-02 4.000E-02

  EIGHT POINT CROSS-SECTION DATA FOR SEGMENTS WITH ICALC = 2
    X VALUES X VALUES START FROM LEFT SIDE LOOKING DOWNSTREAM

     SEGMENT NO.        X1        X2        X3        X4        X5        X6        X7        X8
            1      0.000E+00 2.000E+00 4.000E+00 6.000E+00 8.000E+00 1.000E+01 1.200E+01 1.400E+01

    Z VALUES ARE RELATIVE TO STREAMBED ELEVATION

     SEGMENT NO.          Z1        Z2        Z3        Z4        Z5        Z6        Z7        Z8
            1      6.000E+00 4.500E+00 3.500E+00 0.000E+00 3.000E-01 3.500E+00 4.500E+00 6.000E+00



 
 SOLVING FOR HEAD 
                                                   Max.-Head-Change                         Max.-Flux-Residual
  Residual-Control   Outer-Iter.   Inner-Iter.     Column Row Layer    Maximum-Head-Change  Column Row Layer    Maximum-Flux-Residual          L2-NORM 
          0                 1           2             1    1     1      -0.6091583007E-02      50    3    1         0.1319276236E+00      0.1667655151E+00
          0                 2           2             1    1     1       0.5956866831E-03      55    5    1        -0.1380816667E-01      0.1676755152E-01
          0                 3           1             1    1     1      -0.5255617349E-04      55    5    1         0.1292465814E-02      0.1611516129E-02
          0                 4           1             1    1     1       0.4136222711E-05      55    5    1        -0.1032382211E-03      0.1282966574E-03
          0                 5           1             1    1     1      -0.2862770888E-06      55    5    1         0.7259432288E-05      0.9026365153E-05

    ------------------------------------------------
       NWT REQUIRED            5 OUTER ITERATIONS 
       AND A TOTAL OF          7 INNER ITERATIONS.
    ------------------------------------------------

 NO OUTPUT CONTROL FOR STRESS PERIOD   36   TIME STEP    1
 
 WELLS WITH REDUCED PUMPING FOR STRESS PERIOD    36 TIME STEP     1
   LAY   ROW   COL         APPL.Q          ACT.Q        GW-HEAD       CELL-BOT
     1     3    50  -0.500082E+00  -0.359414E+00   0.728376E-03   0.000000E+00
     1     5    55  -0.500082E+00  -0.271587E+00   0.586917E-03   0.000000E+00
 
 
 SOLVING FOR HEAD 
                                                   Max.-Head-Change                         Max.-Flux-Residual
  Residual-Control   Outer-Iter.   Inner-Iter.     Column Row Layer    Maximum-Head-Change  Column Row Layer    Maximum-Flux-Residual          L2-NORM 
          0                 1           2             1    1     1      -0.6698968488E-02       1    1    1        -0.1266750990E-02      0.2162812473E-01
          0                 2           2             1    1     1       0.6540548128E-03       1    1    1         0.1266749541E-03      0.2099180988E-02
          0                 3           1             1    1     1      -0.5762050451E-04       1    1    1        -0.1140076304E-04      0.1895176371E-03
          0                 4           1             1    1     1       0.4528642708E-05       1    1    1         0.9132011307E-06      0.1542471278E-04
          0                 5           1             1    1     1      -0.3130621611E-06       1    1    1        -0.6419715604E-07      0.1103882404E-05

    ------------------------------------------------
       NWT REQUIRED            5 OUTER ITERATIONS 
       AND A TOTAL OF          7 INNER ITERATIONS.
    ------------------------------------------------

 NO OUTPUT CONTROL FOR STRESS PERIOD   36   TIME STEP    2
 
 WELLS WITH REDUCED PUMPING FOR STRESS PERIOD    36 TIME STEP     2
   LAY   ROW   COL         APPL.Q          ACT.Q        GW-HEAD       CELL-BOT
     1     3    50  -0.500082E+00  -0.359372E+00   0.728308E-03   0.000000E+00
     1     5    55  -0.500082E+00  -0.271545E+00   0.586855E-03   0.000000E+00
 
 
 SOLVING FOR HEAD 
                                                   Max.-Head-Change                         Max.-Flux-Residual
  Residual-Control   Outer-Iter.   Inner-Iter.     Column Row Layer    Maximum-Head-Change  Column Row Layer    Maximum-Flux-Residual          L2-NORM 
          0                 1           2             1    1     1      -0.7366767040E-02       1    1    1        -0.1266596435E-02      0.2162628508E-01
          0                 2           2             1    1     1       0.7180600377E-03       1    1    1         0.1266594663E-03      0.2099188035E-02
          0                 3           1             1    1     1      -0.6315818560E-04       1    1    1        -0.1139937260E-04      0.1895878198E-03
          0                 4           1             1    1     1       0.4956470265E-05       1    1    1         0.9130897176E-06      0.1544925746E-04
          0                 5           1             1    1     1      -0.3421766677E-06       1    7    1        -0.6418933740E-07      0.1107644727E-05

    ------------------------------------------------
       NWT REQUIRED            5 OUTER ITERATIONS 
       AND A TOTAL OF          7 INNER ITERATIONS.
    ------------------------------------------------

 NO OUTPUT CONTROL FOR STRESS PERIOD   36   TIME STEP    3
 
 WELLS WITH REDUCED PUMPING FOR STRESS PERIOD    36 TIME STEP     3
   LAY   ROW   COL         APPL.Q          ACT.Q        GW-HEAD       CELL-BOT
     1     3    50  -0.499936E+00  -0.359298E+00   0.728360E-03   0.000000E+00
     1     5    55  -0.499936E+00  -0.271482E+00   0.586881E-03   0.000000E+00
 
 
 SOLVING FOR HEAD 
                                                   Max.-Head-Change                         Max.-Flux-Residual
  Residual-Control   Outer-Iter.   Inner-Iter.     Column Row Layer    Maximum-Head-Change  Column Row Layer    Maximum-Flux-Residual          L2-NORM 
          0                 1           2             1    1     1      -0.8100968835E-02       1    1    1        -0.1266426584E-02      0.2162240832E-01
          0                 2           2             1    1     1       0.7882437670E-03       1    1    1         0.1266424430E-03      0.2098904115E-02
          0                 3           1             1    1     1      -0.6921272106E-04       1    1    1        -0.1139784460E-04      0.1896255125E-03
          0                 4           1             1    1     1       0.5422762914E-05       1    1    1         0.9129672627E-06      0.1547153188E-04
          0                 5           1             1    1     1      -0.3738058733E-06       1    7    1        -0.6418072118E-07      0.1111353758E-05

    ------------------------------------------------
       NWT REQUIRED            5 OUTER ITERATIONS 
       AND A TOTAL OF          7 INNER ITERATIONS.
    ------------------------------------------------

 NO OUTPUT CONTROL FOR STRESS PERIOD   36   TIME STEP    4
 
 WELLS WITH REDUCED PUMPING FOR STRESS PERIOD    36 TIME STEP     4
   LAY   ROW   COL         APPL.Q          ACT.Q        GW-HEAD       CELL-BOT
     1     3    50  -0.500069E+00  -0.359218E+00   0.728071E-03   0.000000E+00
     1     5    55  -0.500069E+00  -0.271414E+00   0.586671E-03   0.000000E+00
 
 
 SOLVING FOR HEAD 
                                                   Max.-Head-Change                         Max.-Flux-Residual
  Residual-Control   Outer-Iter.   Inner-Iter.     Column Row Layer    Maximum-Head-Change  Column Row Layer    Maximum-Flux-Residual          L2-NORM 
          0                 1           2             1    1     1      -0.8908154961E-02       1    1    1        -0.1266239939E-02      0.2161960470E-01
          0                 2           2             1    1     1       0.8652008180E-03       1    1    1         0.1266237334E-03      0.2098524324E-02
          0                 3           1             1    1     1      -0.7583187038E-04       1    1    1        -0.1139616555E-04      0.1896479471E-03
          0                 4           1             1    1     1       0.5930874947E-05       1    1    1         0.9128327036E-06      0.1549276158E-04
          0                 5           1             1    1     1      -0.4081525562E-06       1    7    1        -0.6417125897E-07      0.1115082476E-05

    ------------------------------------------------
       NWT REQUIRED            5 OUTER ITERATIONS 
       AND A TOTAL OF          7 INNER ITERATIONS.
    ------------------------------------------------

 NO OUTPUT CONTROL FOR STRESS PERIOD   36   TIME STEP    5
 
 WELLS WITH REDUCED PUMPING FOR STRESS PERIOD    36 TIME STEP     5
   LAY   ROW   COL         APPL.Q          ACT.Q        GW-HEAD       CELL-BOT
     1     3    50  -0.500034E+00  -0.359130E+00   0.727968E-03   0.000000E+00
     1     5    55  -0.500034E+00  -0.271339E+00   0.586588E-03   0.000000E+00
 
 
 SOLVING FOR HEAD 
                                                   Max.-Head-Change                         Max.-Flux-Residual
  Residual-Control   Outer-Iter.   Inner-Iter.     Column Row Layer    Maximum-Head-Change  Column Row Layer    Maximum-Flux-Residual          L2-NORM 
          0                 1           2             1    1     1      -0.9795557127E-02       1    1    1        -0.1266034830E-02      0.2161617804E-01
          0                 2           2             1    1     1       0.9495851223E-03       1    1    1         0.1266031696E-03      0.2098226196E-02
          0                 3           1             1    1     1      -0.8306812903E-04       1    1    1        -0.1139432043E-04      0.1896885462E-03
          0                 4           1             1    1     1       0.6484484901E-05       1    1    1         0.9126848326E-06      0.1551596536E-04
          0                 5           1             1    1     1      -0.4454379428E-06       1    1    1        -0.6416086862E-07      0.1119027148E-05

    ------------------------------------------------
       NWT REQUIRED            5 OUTER ITERATIONS 
       AND A TOTAL OF          7 INNER ITERATIONS.
    ------------------------------------------------

 NO OUTPUT CONTROL FOR STRESS PERIOD   36   TIME STEP    6
 
 WELLS WITH REDUCED PUMPING FOR STRESS PERIOD    36 TIME STEP     6
   LAY   ROW   COL         APPL.Q          ACT.Q        GW-HEAD       CELL-BOT
     1     3    50  -0.499971E+00  -0.359031E+00   0.727880E-03   0.000000E+00
     1     5    55  -0.499971E+00  -0.271246E+00   0.586501E-03   0.000000E+00
 
 
 SOLVING FOR HEAD 
                                                   Max.-Head-Change                         Max.-Flux-Residual
  Residual-Control   Outer-Iter.   Inner-Iter.     Column Row Layer    Maximum-Head-Change  Column Row Layer    Maximum-Flux-Residual          L2-NORM 
          0                 1           2             1    1     1      -0.1077111826E-01       1    1    1        -0.1265809414E-02      0.2160992513E-01
          0                 2           2             1    1     1       0.1042115528E-02       1    1    1         0.1265805663E-03      0.2097776036E-02
          0                 3           1             1    1     1      -0.9097922558E-04       1    1    1        -0.1139229268E-04      0.1897141888E-03
          0                 4           1             1    1     1       0.7087630963E-05       1    1    1         0.9125223137E-06      0.1553790010E-04
          0                 5           1             1    1     1      -0.4859040441E-06       1    7    1        -0.6414944131E-07      0.1122944135E-05

    ------------------------------------------------
       NWT REQUIRED            5 OUTER ITERATIONS 
       AND A TOTAL OF          7 INNER ITERATIONS.
    ------------------------------------------------

 NO OUTPUT CONTROL FOR STRESS PERIOD   36   TIME STEP    7
 
 WELLS WITH REDUCED PUMPING FOR STRESS PERIOD    36 TIME STEP     7
   LAY   ROW   COL         APPL.Q          ACT.Q        GW-HEAD       CELL-BOT
     1     3    50  -0.499943E+00  -0.358914E+00   0.727721E-03   0.000000E+00
     1     5    55  -0.499943E+00  -0.271148E+00   0.586378E-03   0.000000E+00
 
 
 SOLVING FOR HEAD 
                                                   Max.-Head-Change                         Max.-Flux-Residual
  Residual-Control   Outer-Iter.   Inner-Iter.     Column Row Layer    Maximum-Head-Change  Column Row Layer    Maximum-Flux-Residual          L2-NORM 
          0                 1           2             1    1     1      -0.1184356513E-01       1    1    1        -0.1265561672E-02      0.2160600705E-01
          0                 2           2             1    1     1       0.1143582752E-02       1    1    1         0.1265557204E-03      0.2097154301E-02
          0                 3           1             1    1     1      -0.9962871728E-04       1    1    1        -0.1139006415E-04      0.1897055140E-03
          0                 4           1             1    1     1       0.7744752057E-05       1    1    1         0.9123437081E-06      0.1555651689E-04
          0                 5           1             1    1     1      -0.5298159910E-06       1    1    1        -0.6413688780E-07      0.1126675730E-05

    ------------------------------------------------
       NWT REQUIRED            5 OUTER ITERATIONS 
       AND A TOTAL OF          7 INNER ITERATIONS.
    ------------------------------------------------

 NO OUTPUT CONTROL FOR STRESS PERIOD   36   TIME STEP    8
 
 WELLS WITH REDUCED PUMPING FOR STRESS PERIOD    36 TIME STEP     8
   LAY   ROW   COL         APPL.Q          ACT.Q        GW-HEAD       CELL-BOT
     1     3    50  -0.499956E+00  -0.358791E+00   0.727504E-03   0.000000E+00
     1     5    55  -0.499956E+00  -0.271044E+00   0.586213E-03   0.000000E+00
 
 
 SOLVING FOR HEAD 
                                                   Max.-Head-Change                         Max.-Flux-Residual
  Residual-Control   Outer-Iter.   Inner-Iter.     Column Row Layer    Maximum-Head-Change  Column Row Layer    Maximum-Flux-Residual          L2-NORM 
          0                 1           2             1    1     1      -0.1302248081E-01       1    1    1        -0.1265289391E-02      0.2160042815E-01
          0                 2           2             1    1     1       0.1254856308E-02       1    1    1         0.1265284096E-03      0.2096678816E-02
          0                 3           2             1    1     1      -0.1090872143E-03       1    1    1        -0.1138761492E-04      0.1897282284E-03
          0                 4           1             1    1     1       0.8461401379E-05       1    1    1         0.9121474029E-06      0.1557970171E-04
          0                 5           1             1    1     1      -0.5775089541E-06       1    1    1        -0.6412308551E-07      0.1130774080E-05

    ------------------------------------------------
       NWT REQUIRED            5 OUTER ITERATIONS 
       AND A TOTAL OF          8 INNER ITERATIONS.
    ------------------------------------------------

 NO OUTPUT CONTROL FOR STRESS PERIOD   36   TIME STEP    9
 
 WELLS WITH REDUCED PUMPING FOR STRESS PERIOD    36 TIME STEP     9
   LAY   ROW   COL         APPL.Q          ACT.Q        GW-HEAD       CELL-BOT
     1     3    50  -0.499979E+00  -0.358660E+00   0.727262E-03   0.000000E+00
     1     5    55  -0.499979E+00  -0.270933E+00   0.586030E-03   0.000000E+00
 
 
 SOLVING FOR HEAD 
                                                   Max.-Head-Change                         Max.-Flux-Residual
  Residual-Control   Outer-Iter.   Inner-Iter.     Column Row Layer    Maximum-Head-Change  Column Row Layer    Maximum-Flux-Residual          L2-NORM 
          0                 1           2             1    1     1      -0.1431839186E-01       1    1    1        -0.1264990146E-02      0.2159159612E-01
          0                 2           2             1    1     1       0.1376892803E-02       1    1    1         0.1264983898E-03      0.2096024829E-02
          0                 3           2             1    1     1      -0.1194309970E-03       1    1    1        -0.1138492318E-04      0.1897476974E-03
          0                 4           1             1    1     1       0.9242062494E-05       1    1    1         0.9119316573E-06      0.1560255443E-04
          0                 5           1             1    1     1      -0.6292422771E-06       1    1    1        -0.6410791542E-07      0.1134903739E-05

    ------------------------------------------------
       NWT REQUIRED            5 OUTER ITERATIONS 
       AND A TOTAL OF          8 INNER ITERATIONS.
    ------------------------------------------------

 NO OUTPUT CONTROL FOR STRESS PERIOD   36   TIME STEP   10
 
 WELLS WITH REDUCED PUMPING FOR STRESS PERIOD    36 TIME STEP    10
   LAY   ROW   COL         APPL.Q          ACT.Q        GW-HEAD       CELL-BOT
     1     3    50  -0.499958E+00  -0.358519E+00   0.727057E-03   0.000000E+00
     1     5    55  -0.499958E+00  -0.270813E+00   0.585869E-03   0.000000E+00
 
 
 SOLVING FOR HEAD 
                                                   Max.-Head-Change                         Max.-Flux-Residual
  Residual-Control   Outer-Iter.   Inner-Iter.     Column Row Layer    Maximum-Head-Change  Column Row Layer    Maximum-Flux-Residual          L2-NORM 
          0                 1           2             1    1     1      -0.1574285266E-01       1    1    1        -0.1264661277E-02      0.2158320236E-01
          0                 2           2             1    1     1       0.1510743954E-02       1    1    1         0.1264653936E-03      0.2095086809E-02
          0                 3           2             1    1     1      -0.1307454474E-03       1    1    1        -0.1138196499E-04      0.1897179981E-03
          0                 4           1             1    1     1       0.1009312866E-04       1    7    1         0.9116945385E-06      0.1562015318E-04
          0                 5           1             1    1     1      -0.6853963162E-06       1    7    1        -0.6409125008E-07      0.1138631348E-05

    ------------------------------------------------
       NWT REQUIRED            5 OUTER ITERATIONS 
       AND A TOTAL OF          8 INNER ITERATIONS.
    ------------------------------------------------

 NO OUTPUT CONTROL FOR STRESS PERIOD   36   TIME STEP   11
 
 WELLS WITH REDUCED PUMPING FOR STRESS PERIOD    36 TIME STEP    11
   LAY   ROW   COL         APPL.Q          ACT.Q        GW-HEAD       CELL-BOT
     1     3    50  -0.500016E+00  -0.358367E+00   0.726737E-03   0.000000E+00
     1     5    55  -0.500016E+00  -0.270683E+00   0.585629E-03   0.000000E+00
 
 
 SOLVING FOR HEAD 
                                                   Max.-Head-Change                         Max.-Flux-Residual
  Residual-Control   Outer-Iter.   Inner-Iter.     Column Row Layer    Maximum-Head-Change  Column Row Layer    Maximum-Flux-Residual          L2-NORM 
          0                 1           2             1    1     1      -0.1730854845E-01       1    1    1        -0.1264299864E-02      0.2157275994E-01
          0                 2           2             1    1     1       0.1657566312E-02       1    1    1         0.1264291274E-03      0.2094157717E-02
          0                 3           2             1    1     1      -0.1431242510E-03       1    1    1        -0.1137871410E-04      0.1896943240E-03
          0                 4           1             1    1     1       0.1102122593E-04       1    7    1         0.9114339652E-06      0.1563804629E-04
          0                 5           1             1    1     1      -0.7463596421E-06       1    1    1        -0.6407293185E-07      0.1142346354E-05

    ------------------------------------------------
       NWT REQUIRED            5 OUTER ITERATIONS 
       AND A TOTAL OF          8 INNER ITERATIONS.
    ------------------------------------------------

 NO OUTPUT CONTROL FOR STRESS PERIOD   36   TIME STEP   12
 
 WELLS WITH REDUCED PUMPING FOR STRESS PERIOD    36 TIME STEP    12
   LAY   ROW   COL         APPL.Q          ACT.Q        GW-HEAD       CELL-BOT
     1     3    50  -0.500025E+00  -0.358200E+00   0.726454E-03   0.000000E+00
     1     5    55  -0.500025E+00  -0.270542E+00   0.585412E-03   0.000000E+00
 
 
 SOLVING FOR HEAD 
                                                   Max.-Head-Change                         Max.-Flux-Residual
  Residual-Control   Outer-Iter.   Inner-Iter.     Column Row Layer    Maximum-Head-Change  Column Row Layer    Maximum-Flux-Residual          L2-NORM 
          0                 1           2             1    1     1      -0.1902940167E-01       1    1    1        -0.1263902703E-02      0.2156411752E-01
          0                 2           2             1    1     1       0.1818631266E-02       1    1    1         0.1263892691E-03      0.2093009350E-02
          0                 3           2             1    1     1      -0.1566706153E-03       1    1    1        -0.1137514168E-04      0.1896475159E-03
          0                 4           1             1    1     1       0.1203366743E-04       1    1    1         0.9111476054E-06      0.1565452806E-04
          0                 5           1             1    1     1      -0.8125557472E-06       1    4    1         0.6464755842E-07      0.1145958562E-05

    ------------------------------------------------
       NWT REQUIRED            5 OUTER ITERATIONS 
       AND A TOTAL OF          8 INNER ITERATIONS.
    ------------------------------------------------

 NO OUTPUT CONTROL FOR STRESS PERIOD   36   TIME STEP   13
 
 WELLS WITH REDUCED PUMPING FOR STRESS PERIOD    36 TIME STEP    13
   LAY   ROW   COL         APPL.Q          ACT.Q        GW-HEAD       CELL-BOT
     1     3    50  -0.500025E+00  -0.358018E+00   0.726156E-03   0.000000E+00
     1     5    55  -0.500025E+00  -0.270387E+00   0.585182E-03   0.000000E+00
 
 
 SOLVING FOR HEAD 
                                                   Max.-Head-Change                         Max.-Flux-Residual
  Residual-Control   Outer-Iter.   Inner-Iter.     Column Row Layer    Maximum-Head-Change  Column Row Layer    Maximum-Flux-Residual          L2-NORM 
          0                 1           2             1    1     1      -0.2092068799E-01       1    1    1        -0.1263466276E-02      0.2155425818E-01
          0                 2           2             1    1     1       0.1995335903E-02       1    1    1         0.1263454651E-03      0.2092025698E-02
          0                 3           2             1    1     1      -0.1714981866E-03       1    1    1        -0.1137121606E-04      0.1896121083E-03
          0                 4           1             1    1     1       0.1313851940E-04       1    1    1         0.9108329309E-06      0.1567064390E-04
          0                 5           1             1    1     1      -0.8844436334E-06       1    4    1         0.6591019286E-07      0.1149400433E-05

    ------------------------------------------------
       NWT REQUIRED            5 OUTER ITERATIONS 
       AND A TOTAL OF          8 INNER ITERATIONS.
    ------------------------------------------------

 NO OUTPUT CONTROL FOR STRESS PERIOD   36   TIME STEP   14
 
 WELLS WITH REDUCED PUMPING FOR STRESS PERIOD    36 TIME STEP    14
   LAY   ROW   COL         APPL.Q          ACT.Q        GW-HEAD       CELL-BOT
     1     3    50  -0.500011E+00  -0.357816E+00   0.725842E-03   0.000000E+00
     1     5    55  -0.500011E+00  -0.270216E+00   0.584941E-03   0.000000E+00
 
 
 SOLVING FOR HEAD 
                                                   Max.-Head-Change                         Max.-Flux-Residual
  Residual-Control   Outer-Iter.   Inner-Iter.     Column Row Layer    Maximum-Head-Change  Column Row Layer    Maximum-Flux-Residual          L2-NORM 
          0                 1           2             1    1     1      -0.2299916306E-01       1    1    1        -0.1262986722E-02      0.2154392067E-01
          0                 2           2             1    1     1       0.2189214808E-02       1    1    1         0.1262973270E-03      0.2090919192E-02
          0                 3           2             1    1     1      -0.1877320424E-03       1    1    1        -0.1136690252E-04      0.1895417863E-03
          0                 4           1             1    1     1       0.1434467006E-04       1    1    1         0.9104871488E-06      0.1568172476E-04
          0                 5           1             1    1     1      -0.9625167121E-06       1    4    1         0.6710729750E-07      0.1152282346E-05

    ------------------------------------------------
       NWT REQUIRED            5 OUTER ITERATIONS 
       AND A TOTAL OF          8 INNER ITERATIONS.
    ------------------------------------------------

 NO OUTPUT CONTROL FOR STRESS PERIOD   36   TIME STEP   15
 
 WELLS WITH REDUCED PUMPING FOR STRESS PERIOD    36 TIME STEP    15
   LAY   ROW   COL         APPL.Q          ACT.Q        GW-HEAD       CELL-BOT
     1     3    50  -0.500011E+00  -0.357574E+00   0.725446E-03   0.000000E+00
     1     5    55  -0.500011E+00  -0.270004E+00   0.584626E-03   0.000000E+00
 
 
 SOLVING FOR HEAD 
                                                   Max.-Head-Change                         Max.-Flux-Residual
  Residual-Control   Outer-Iter.   Inner-Iter.     Column Row Layer    Maximum-Head-Change  Column Row Layer    Maximum-Flux-Residual          L2-NORM 
          0                 1           2             1    1     1      -0.2528320085E-01       1    1    1        -0.1262459800E-02      0.2153090928E-01
          0                 2           2             1    1     1       0.2401952900E-02       1    1    1         0.1262444286E-03      0.2089752116E-02
          0                 3           2             1    1     1      -0.2055097607E-03       1    1    1        -0.1136216289E-04      0.1894850555E-03
          0                 4           1             1    1     1       0.1566190051E-04       1    1    1         0.9101072038E-06      0.1569497990E-04
          0                 5           1             1    1     1      -0.1047298448E-05       1    4    1         0.6823761467E-07      0.1155209727E-05
          0                 6           1             1    1     1       0.6045736882E-07       2    4    1        -0.5494246835E-08      0.7360510708E-07

    ------------------------------------------------
       NWT REQUIRED            6 OUTER ITERATIONS 
       AND A TOTAL OF          9 INNER ITERATIONS.
    ------------------------------------------------

 NO OUTPUT CONTROL FOR STRESS PERIOD   36   TIME STEP   16
 
 WELLS WITH REDUCED PUMPING FOR STRESS PERIOD    36 TIME STEP    16
   LAY   ROW   COL         APPL.Q          ACT.Q        GW-HEAD       CELL-BOT
     1     3    50  -0.500011E+00  -0.357313E+00   0.725020E-03   0.000000E+00
     1     5    55  -0.500011E+00  -0.269785E+00   0.584300E-03   0.000000E+00
 
 
 SOLVING FOR HEAD 
                                                   Max.-Head-Change                         Max.-Flux-Residual
  Residual-Control   Outer-Iter.   Inner-Iter.     Column Row Layer    Maximum-Head-Change  Column Row Layer    Maximum-Flux-Residual          L2-NORM 
          0                 1           2             1    1     1      -0.2779295169E-01       1    7    1        -0.1261881626E-02      0.2151633778E-01
          0                 2           2             1    1     1       0.2635400161E-02       1    7    1         0.1261863786E-03      0.2088344512E-02
          0                 3           2             1    1     1      -0.2249826568E-03       1    7    1        -0.1135696217E-04      0.1894035770E-03
          0                 4           1             1    1     1       0.1710096607E-04       1    7    1         0.9096902884E-06      0.1570557079E-04
          0                 5           1             1    1     1      -0.1139335366E-05       1    4    1         0.6930043739E-07      0.1157705806E-05
          0                 6           1             1    1     1       0.6549971710E-07       2    4    1        -0.5599609665E-08      0.7392585252E-07

    ------------------------------------------------
       NWT REQUIRED            6 OUTER ITERATIONS 
       AND A TOTAL OF          9 INNER ITERATIONS.
    ------------------------------------------------

 NO OUTPUT CONTROL FOR STRESS PERIOD   36   TIME STEP   17
 
 WELLS WITH REDUCED PUMPING FOR STRESS PERIOD    36 TIME STEP    17
   LAY   ROW   COL         APPL.Q          ACT.Q        GW-HEAD       CELL-BOT
     1     3    50  -0.500022E+00  -0.357038E+00   0.724557E-03   0.000000E+00
     1     5    55  -0.500022E+00  -0.269552E+00   0.583946E-03   0.000000E+00
 
 
 SOLVING FOR HEAD 
                                                   Max.-Head-Change                         Max.-Flux-Residual
  Residual-Control   Outer-Iter.   Inner-Iter.     Column Row Layer    Maximum-Head-Change  Column Row Layer    Maximum-Flux-Residual          L2-NORM 
          0                 1           2             1    1     1      -0.3055047376E-01       1    7    1        -0.1261245919E-02      0.2150006455E-01
          0                 2           2             1    1     1       0.2891583183E-02       1    7    1         0.1261225464E-03      0.2086745159E-02
          0                 3           2             1    1     1      -0.2463166832E-03       1    7    1        -0.1135124388E-04      0.1892965186E-03
          0                 4           1             1    1     1       0.1867364135E-04       1    7    1         0.9092318796E-06      0.1571298562E-04
          0                 5           1             1    1     1      -0.1239182793E-05       2    4    1         0.7030212146E-07      0.1159660561E-05
          0                 6           1             1    1     1       0.7091963399E-07       2    4    1        -0.5698321814E-08      0.7419315334E-07

    ------------------------------------------------
       NWT REQUIRED            6 OUTER ITERATIONS 
       AND A TOTAL OF          9 INNER ITERATIONS.
    ------------------------------------------------

 NO OUTPUT CONTROL FOR STRESS PERIOD   36   TIME STEP   18
 
 WELLS WITH REDUCED PUMPING FOR STRESS PERIOD    36 TIME STEP    18
   LAY   ROW   COL         APPL.Q          ACT.Q        GW-HEAD       CELL-BOT
     1     3    50  -0.500017E+00  -0.356741E+00   0.724077E-03   0.000000E+00
     1     5    55  -0.500017E+00  -0.269300E+00   0.583576E-03   0.000000E+00
 
 
 SOLVING FOR HEAD 
                                                   Max.-Head-Change                         Max.-Flux-Residual
  Residual-Control   Outer-Iter.   Inner-Iter.     Column Row Layer    Maximum-Head-Change  Column Row Layer    Maximum-Flux-Residual          L2-NORM 
          0                 1           2             1    1     1      -0.3357994372E-01       1    7    1        -0.1260547225E-02      0.2148254028E-01
          0                 2           2             1    1     1       0.3172725159E-02       1    7    1         0.1260523836E-03      0.2084974361E-02
          0                 3           2             1    1     1      -0.2696941341E-03       1    7    1        -0.1134495889E-04      0.1891621025E-03
          0                 4           1             1    1     1       0.2039282786E-04       1    7    1         0.9087280302E-06      0.1571640142E-04
          0                 5           1             1    1     1      -0.1347389109E-05       2    4    1         0.7124497614E-07      0.1160876818E-05
          0                 6           1             1    1     1       0.7672909775E-07       2    4    1        -0.5790028013E-08      0.7438552035E-07

    ------------------------------------------------
       NWT REQUIRED            6 OUTER ITERATIONS 
       AND A TOTAL OF          9 INNER ITERATIONS.
    ------------------------------------------------

 NO OUTPUT CONTROL FOR STRESS PERIOD   36   TIME STEP   19
 
 WELLS WITH REDUCED PUMPING FOR STRESS PERIOD    36 TIME STEP    19
   LAY   ROW   COL         APPL.Q          ACT.Q        GW-HEAD       CELL-BOT
     1     3    50  -0.499989E+00  -0.356417E+00   0.723580E-03   0.000000E+00
     1     5    55  -0.499989E+00  -0.269026E+00   0.583192E-03   0.000000E+00
 
 
 SOLVING FOR HEAD 
                                                   Max.-Head-Change                         Max.-Flux-Residual
  Residual-Control   Outer-Iter.   Inner-Iter.     Column Row Layer    Maximum-Head-Change  Column Row Layer    Maximum-Flux-Residual          L2-NORM 
          0                 1           2             1    1     1      -0.3690783033E-01       1    7    1        -0.1259779536E-02      0.2146434997E-01
          0                 2           2             1    1     1       0.3481261222E-02       1    7    1         0.1259752857E-03      0.2083080241E-02
          0                 3           2             1    1     1      -0.2953148523E-03       1    7    1        -0.1133805313E-04      0.1890208839E-03
          0                 4           1             1    1     1       0.2227260152E-04       1    1    1         0.9081744103E-06      0.1571916148E-04
          0                 5           1             1    1     1      -0.1464460519E-05       2    4    1         0.7212288722E-07      0.1161576139E-05
          0                 6           1             1    1     1       0.8293063247E-07       2    4    1        -0.5874390752E-08      0.7451163709E-07

    ------------------------------------------------
       NWT REQUIRED            6 OUTER ITERATIONS 
       AND A TOTAL OF          9 INNER ITERATIONS.
    ------------------------------------------------

 NO OUTPUT CONTROL FOR STRESS PERIOD   36   TIME STEP   20
 
 WELLS WITH REDUCED PUMPING FOR STRESS PERIOD    36 TIME STEP    20
   LAY   ROW   COL         APPL.Q          ACT.Q        GW-HEAD       CELL-BOT
     1     3    50  -0.499985E+00  -0.356060E+00   0.723002E-03   0.000000E+00
     1     5    55  -0.499985E+00  -0.268720E+00   0.582740E-03   0.000000E+00
 
 
 SOLVING FOR HEAD 
                                                   Max.-Head-Change                         Max.-Flux-Residual
  Residual-Control   Outer-Iter.   Inner-Iter.     Column Row Layer    Maximum-Head-Change  Column Row Layer    Maximum-Flux-Residual          L2-NORM 
          0                 1           2             1    1     1      -0.4056309678E-01       1    7    1        -0.1258936139E-02      0.2144306129E-01
          0                 2           2             1    1     1       0.3819856685E-02       1    7    1         0.1258905777E-03      0.2080995740E-02
          0                 3           2             1    1     1      -0.3233976922E-03       1    7    1        -0.1133046614E-04      0.1888806184E-03
          0                 4           1             1    1     1       0.2432827541E-04       1    7    1         0.9075661698E-06      0.1572354152E-04
          0                 5           1             1    1     1      -0.1590822386E-05       2    4    1         0.7293625259E-07      0.1161914126E-05
          0                 6           1             1    1     1       0.8951294693E-07       2    4    1        -0.5950941073E-08      0.7457733230E-07

    ------------------------------------------------
       NWT REQUIRED            6 OUTER ITERATIONS 
       AND A TOTAL OF          9 INNER ITERATIONS.
    ------------------------------------------------

 NO OUTPUT CONTROL FOR STRESS PERIOD   36   TIME STEP   21
 
 WELLS WITH REDUCED PUMPING FOR STRESS PERIOD    36 TIME STEP    21
   LAY   ROW   COL         APPL.Q          ACT.Q        GW-HEAD       CELL-BOT
     1     3    50  -0.500000E+00  -0.355633E+00   0.722289E-03   0.000000E+00
     1     5    55  -0.500000E+00  -0.268361E+00   0.582196E-03   0.000000E+00
 
 
 SOLVING FOR HEAD 
                                                   Max.-Head-Change                         Max.-Flux-Residual
  Residual-Control   Outer-Iter.   Inner-Iter.     Column Row Layer    Maximum-Head-Change  Column Row Layer    Maximum-Flux-Residual          L2-NORM 
          0                 1           2             1    1     1      -0.4457741614E-01       1    7    1        -0.1258009616E-02      0.2141891181E-01
          0                 2           2             1    1     1       0.4191426047E-02       1    1    1         0.1257975135E-03      0.2078669208E-02
          0                 3           2             1    1     1      -0.3541820127E-03       1    7    1        -0.1132213115E-04      0.1886950245E-03
          0                 4           1             1    1     1       0.2657646127E-04       1    1    1         0.9068979701E-06      0.1572081796E-04
          0                 5           1             1    1     1      -0.1726777989E-05       7    4    1         0.7377548172E-07      0.1160834078E-05
          0                 6           1             1    1     1       0.9644539357E-07       7    4    1        -0.6020137278E-08      0.7449829195E-07

    ------------------------------------------------
       NWT REQUIRED            6 OUTER ITERATIONS 
       AND A TOTAL OF          9 INNER ITERATIONS.
    ------------------------------------------------

 NO OUTPUT CONTROL FOR STRESS PERIOD   36   TIME STEP   22
 
 WELLS WITH REDUCED PUMPING FOR STRESS PERIOD    36 TIME STEP    22
   LAY   ROW   COL         APPL.Q          ACT.Q        GW-HEAD       CELL-BOT
     1     3    50  -0.499997E+00  -0.355188E+00   0.721567E-03   0.000000E+00
     1     5    55  -0.499997E+00  -0.267984E+00   0.581640E-03   0.000000E+00
 
 
 SOLVING FOR HEAD 
                                                   Max.-Head-Change                         Max.-Flux-Residual
  Residual-Control   Outer-Iter.   Inner-Iter.     Column Row Layer    Maximum-Head-Change  Column Row Layer    Maximum-Flux-Residual          L2-NORM 
          0                 1           2             1    1     1      -0.4900463613E-01       1    7    1        -0.1256991808E-02      0.2139437072E-01
          0                 2           2             1    1     1       0.4602169938E-02       1    1    1         0.1256955650E-03      0.2076185186E-02
          0                 3           2             1    1     1      -0.3882702874E-03       1    7    1        -0.1131299696E-04      0.1884602988E-03
          0                 4           1             1    1     1       0.2906648587E-04       1    1    1         0.9061657131E-06      0.1570961976E-04
          0                 5           1             3    1     1      -0.1875355843E-05       2    4    1         0.7387065537E-07      0.1157951052E-05
          0                 6           1             1    1     1       0.1038105058E-06       2    4    1        -0.6047617518E-08      0.7423187761E-07

    ------------------------------------------------
       NWT REQUIRED            6 OUTER ITERATIONS 
       AND A TOTAL OF          9 INNER ITERATIONS.
    ------------------------------------------------

 NO OUTPUT CONTROL FOR STRESS PERIOD   36   TIME STEP   23
 
 WELLS WITH REDUCED PUMPING FOR STRESS PERIOD    36 TIME STEP    23
   LAY   ROW   COL         APPL.Q          ACT.Q        GW-HEAD       CELL-BOT
     1     3    50  -0.500009E+00  -0.354711E+00   0.720776E-03   0.000000E+00
     1     5    55  -0.500009E+00  -0.267581E+00   0.581032E-03   0.000000E+00
 
 
 SOLVING FOR HEAD 
                                                   Max.-Head-Change                         Max.-Flux-Residual
  Residual-Control   Outer-Iter.   Inner-Iter.     Column Row Layer    Maximum-Head-Change  Column Row Layer    Maximum-Flux-Residual          L2-NORM 
          0                 1           2             1    1     1      -0.5393258866E-01       1    5    1        -0.1256527037E-02      0.2137647124E-01
          0                 2           2             1    1     1       0.5060471500E-02       1    3    1         0.1256480533E-03      0.2073918539E-02
          0                 3           2             2    1     1      -0.4264325435E-03       1    5    1        -0.1130891838E-04      0.1881967267E-03
          0                 4           1             3    1     1       0.3186002196E-04       1    3    1         0.9058370622E-06      0.1569187314E-04
          0                 5           1             3    1     1      -0.2039559404E-05       7    4    1         0.7359752630E-07      0.1153315307E-05
          0                 6           1             3    1     1       0.1116850369E-06       7    4    1        -0.6049837964E-08      0.7378016465E-07

    ------------------------------------------------
       NWT REQUIRED            6 OUTER ITERATIONS 
       AND A TOTAL OF          9 INNER ITERATIONS.
    ------------------------------------------------

 NO OUTPUT CONTROL FOR STRESS PERIOD   36   TIME STEP   24
 
 WELLS WITH REDUCED PUMPING FOR STRESS PERIOD    36 TIME STEP    24
   LAY   ROW   COL         APPL.Q          ACT.Q        GW-HEAD       CELL-BOT
     1     3    50  -0.499998E+00  -0.354191E+00   0.719943E-03   0.000000E+00
     1     5    55  -0.499998E+00  -0.267144E+00   0.580392E-03   0.000000E+00
 
 
 SOLVING FOR HEAD 
                                                   Max.-Head-Change                         Max.-Flux-Residual
  Residual-Control   Outer-Iter.   Inner-Iter.     Column Row Layer    Maximum-Head-Change  Column Row Layer    Maximum-Flux-Residual          L2-NORM 
          0                 1           3             1    1     1      -0.5937928954E-01       1    5    1        -0.1257953374E-02      0.2136285833E-01
          0                 2           2             1    1     1       0.5566697638E-02       1    5    1         0.1257903665E-03      0.2072323089E-02
          0                 3           2             1    1     1      -0.4684815054E-03       1    5    1        -0.1132178156E-04      0.1879959553E-03
          0                 4           1             3    1     1       0.3493540551E-04       1    5    1         0.9068665996E-06      0.1567711649E-04
          0                 5           1             3    1     1      -0.2215290675E-05       2    4    1         0.7340955221E-07      0.1147511644E-05
          0                 6           1             3    1     1       0.1198749453E-06       2    4    1        -0.6039613254E-08      0.7317631710E-07

    ------------------------------------------------
       NWT REQUIRED            6 OUTER ITERATIONS 
       AND A TOTAL OF         10 INNER ITERATIONS.
    ------------------------------------------------

 NO OUTPUT CONTROL FOR STRESS PERIOD   36   TIME STEP   25
 
 WELLS WITH REDUCED PUMPING FOR STRESS PERIOD    36 TIME STEP    25
   LAY   ROW   COL         APPL.Q          ACT.Q        GW-HEAD       CELL-BOT
     1     3    50  -0.500005E+00  -0.353602E+00   0.718977E-03   0.000000E+00
     1     5    55  -0.500005E+00  -0.266642E+00   0.579641E-03   0.000000E+00
 
 
 SOLVING FOR HEAD 
                                                   Max.-Head-Change                         Max.-Flux-Residual
  Residual-Control   Outer-Iter.   Inner-Iter.     Column Row Layer    Maximum-Head-Change  Column Row Layer    Maximum-Flux-Residual          L2-NORM 
          0                 1           3             1    1     1      -0.6537860847E-01       1    5    1        -0.1259377563E-02      0.2134786742E-01
          0                 2           2             1    1     1       0.6124888592E-02       1    5    1         0.1259323166E-03      0.2070889996E-02
          0                 3           2             1    1     1      -0.5149242122E-03       1    5    1        -0.1133461669E-04      0.1878241595E-03
          0                 4           1             1    1     1       0.3830805655E-04       1    3    1         0.9078938170E-06      0.1566516432E-04
          0                 5           1             3    1     1      -0.2397034263E-05       9    4    1         0.7491007992E-07      0.1140842179E-05
          0                 6           1             1    1     1       0.1279127809E-06       9    4    1        -0.6156362531E-08      0.7246769556E-07

    ------------------------------------------------
       NWT REQUIRED            6 OUTER ITERATIONS 
       AND A TOTAL OF         10 INNER ITERATIONS.
    ------------------------------------------------

 NO OUTPUT CONTROL FOR STRESS PERIOD   36   TIME STEP   26
 
 WELLS WITH REDUCED PUMPING FOR STRESS PERIOD    36 TIME STEP    26
   LAY   ROW   COL         APPL.Q          ACT.Q        GW-HEAD       CELL-BOT
     1     3    50  -0.500003E+00  -0.352947E+00   0.717916E-03   0.000000E+00
     1     5    55  -0.500003E+00  -0.266093E+00   0.578830E-03   0.000000E+00
 
 
 SOLVING FOR HEAD 
                                                   Max.-Head-Change                         Max.-Flux-Residual
  Residual-Control   Outer-Iter.   Inner-Iter.     Column Row Layer    Maximum-Head-Change  Column Row Layer    Maximum-Flux-Residual          L2-NORM 
          0                 1           3             1    1     1      -0.7197391334E-01       1    5    1        -0.1260612865E-02      0.2133372306E-01
          0                 2           2             1    1     1       0.6740464426E-02       1    5    1         0.1260552377E-03      0.2069385381E-02
          0                 3           2             1    1     1      -0.5662997538E-03       1    5    1        -0.1134574239E-04      0.1876195106E-03
          0                 4           1             1    1     1       0.4205279089E-04       1    5    1         0.9087840560E-06      0.1564699493E-04
          0                 5           1             3    1     1      -0.2592308417E-05       9    4    1         0.7512178968E-07      0.1131524970E-05
          0                 6           1             1    1     1       0.1358568366E-06       9    4    1        -0.6179899259E-08      0.7149437800E-07

    ------------------------------------------------
       NWT REQUIRED            6 OUTER ITERATIONS 
       AND A TOTAL OF         10 INNER ITERATIONS.
    ------------------------------------------------

 NO OUTPUT CONTROL FOR STRESS PERIOD   36   TIME STEP   27
 
 WELLS WITH REDUCED PUMPING FOR STRESS PERIOD    36 TIME STEP    27
   LAY   ROW   COL         APPL.Q          ACT.Q        GW-HEAD       CELL-BOT
     1     3    50  -0.500001E+00  -0.352249E+00   0.716788E-03   0.000000E+00
     1     5    55  -0.500001E+00  -0.265506E+00   0.577962E-03   0.000000E+00
 
 
 SOLVING FOR HEAD 
                                                   Max.-Head-Change                         Max.-Flux-Residual
  Residual-Control   Outer-Iter.   Inner-Iter.     Column Row Layer    Maximum-Head-Change  Column Row Layer    Maximum-Flux-Residual          L2-NORM 
          0                 1           3             1    1     1      -0.7920281349E-01       1    5    1        -0.1261509853E-02      0.2131445278E-01
          0                 2           2             1    1     1       0.7416860422E-02       1    5    1         0.1261440394E-03      0.2067894992E-02
          0                 3           2             1    1     1      -0.6228752688E-03       1    5    1        -0.1135380212E-04      0.1874291895E-03
          0                 4           1             1    1     1       0.4617312151E-04       1    3    1         0.9094286639E-06      0.1562806356E-04
          0                 5           1             3    1     1      -0.2794838521E-05       9    4    1         0.7579639316E-07      0.1119990449E-05
          0                 6           1             1    1     1       0.1432373024E-06       9    4    1        -0.6223775273E-08      0.7030835610E-07

    ------------------------------------------------
       NWT REQUIRED            6 OUTER ITERATIONS 
       AND A TOTAL OF         10 INNER ITERATIONS.
    ------------------------------------------------

 NO OUTPUT CONTROL FOR STRESS PERIOD   36   TIME STEP   28
 
 WELLS WITH REDUCED PUMPING FOR STRESS PERIOD    36 TIME STEP    28
   LAY   ROW   COL         APPL.Q          ACT.Q        GW-HEAD       CELL-BOT
     1     3    50  -0.499991E+00  -0.351498E+00   0.715582E-03   0.000000E+00
     1     5    55  -0.499991E+00  -0.264876E+00   0.577035E-03   0.000000E+00
 
 
 SOLVING FOR HEAD 
                                                   Max.-Head-Change                         Max.-Flux-Residual
  Residual-Control   Outer-Iter.   Inner-Iter.     Column Row Layer    Maximum-Head-Change  Column Row Layer    Maximum-Flux-Residual          L2-NORM 
          0                 1           3             1    1     1      -0.8714817033E-01       1    5    1        -0.1261809951E-02      0.2129742308E-01
          0                 2           2             1    1     1       0.8153760668E-02       1    5    1         0.1261737581E-03      0.2065727232E-02
          0                 3           2             1    1     1      -0.6839017974E-03       1    5    1        -0.1135655581E-04      0.1871062726E-03
          0                 4           1             1    1     1       0.5055288890E-04       4    3    1         0.9102252321E-06      0.1559388518E-04
          0                 5           1             3    1     1      -0.2987365294E-05       9    4    1         0.7795606294E-07      0.1105294917E-05
          0                 6           1             1    1     1       0.1487768225E-06       9    4    1        -0.6359929472E-08      0.6890851701E-07

    ------------------------------------------------
       NWT REQUIRED            6 OUTER ITERATIONS 
       AND A TOTAL OF         10 INNER ITERATIONS.
    ------------------------------------------------

 NO OUTPUT CONTROL FOR STRESS PERIOD   36   TIME STEP   29
 
 WELLS WITH REDUCED PUMPING FOR STRESS PERIOD    36 TIME STEP    29
   LAY   ROW   COL         APPL.Q          ACT.Q        GW-HEAD       CELL-BOT
     1     3    50  -0.500005E+00  -0.350649E+00   0.714195E-03   0.000000E+00
     1     5    55  -0.500005E+00  -0.264160E+00   0.575963E-03   0.000000E+00
 
 
 SOLVING FOR HEAD 
                                                   Max.-Head-Change                         Max.-Flux-Residual
  Residual-Control   Outer-Iter.   Inner-Iter.     Column Row Layer    Maximum-Head-Change  Column Row Layer    Maximum-Flux-Residual          L2-NORM 
          0                 1           3             1    1     1      -0.9592211807E-01       1    5    1        -0.1262323794E-02      0.2127947764E-01
          0                 2           2             1    1     1       0.8975874000E-02       1    5    1         0.1262250562E-03      0.2063992753E-02
          0                 3           2             1    1     1      -0.7527176115E-03       1    5    1        -0.1136124455E-04      0.1868229150E-03
          0                 4           1             1    1     1       0.5552811881E-04       4    3    1         0.9112177217E-06      0.1555940231E-04
          0                 5           1             3    1     1      -0.3188249207E-05       9    4    1         0.7864528584E-07      0.1088158084E-05
          0                 6           1             1    1     1       0.1535234336E-06       9    4    1        -0.6396177810E-08      0.6736826870E-07

    ------------------------------------------------
       NWT REQUIRED            6 OUTER ITERATIONS 
       AND A TOTAL OF         10 INNER ITERATIONS.
    ------------------------------------------------

 NO OUTPUT CONTROL FOR STRESS PERIOD   36   TIME STEP   30
 
 WELLS WITH REDUCED PUMPING FOR STRESS PERIOD    36 TIME STEP    30
   LAY   ROW   COL         APPL.Q          ACT.Q        GW-HEAD       CELL-BOT
     1     3    50  -0.500015E+00  -0.349715E+00   0.712676E-03   0.000000E+00
     1     5    55  -0.500015E+00  -0.263377E+00   0.574796E-03   0.000000E+00
 



 STREAM LISTING     PERIOD     36   STEP       30

 LAYER ROW COL. STREAM  RCH.   FLOW INTO    STREAM     FLOW OUT OF   OVRLND.    DIRECT     STREAM      STREAM      STREAM     STREAM  STREAMBED   FLOW TO   CHNG. UNSAT. 
                SEG.NO.  NO.   STRM. RCH.    LOSS       STRM. RCH.   RUNOFF     PRECIP       ET         HEAD        DEPTH      WIDTH  CONDCTNC.   WAT. TAB.

   1    4    1     1     1    1.6000E-02  1.0284E-04   1.5897E-02  0.000E+00  0.000E+00  0.000E+00  1.39994E+02  1.444E-01  1.045E+00  1.596E-04  2.289E-04 -1.261E-04
   1    4    2     1     2    1.5897E-02  1.0253E-04   1.5795E-02  0.000E+00  0.000E+00  0.000E+00  1.39694E+02  1.441E-01  1.043E+00  1.592E-04  2.263E-04 -1.237E-04
   1    4    3     1     3    1.5795E-02  1.0223E-04   1.5692E-02  0.000E+00  0.000E+00  0.000E+00  1.39394E+02  1.437E-01  1.040E+00  1.588E-04  2.241E-04 -1.218E-04
   1    4    4     1     4    1.5692E-02  1.0192E-04   1.5590E-02  0.000E+00  0.000E+00  0.000E+00  1.39093E+02  1.434E-01  1.038E+00  1.584E-04  2.223E-04 -1.204E-04
   1    4    5     1     5    1.5590E-02  1.0162E-04   1.5489E-02  0.000E+00  0.000E+00  0.000E+00  1.38793E+02  1.430E-01  1.035E+00  1.580E-04  2.210E-04 -1.194E-04
   1    4    6     1     6    1.5489E-02  1.0131E-04   1.5388E-02  0.000E+00  0.000E+00  0.000E+00  1.38493E+02  1.427E-01  1.033E+00  1.576E-04  2.204E-04 -1.191E-04
   1    4    7     1     7    1.5388E-02  1.0101E-04   1.5287E-02  0.000E+00  0.000E+00  0.000E+00  1.38192E+02  1.423E-01  1.030E+00  1.573E-04  2.202E-04 -1.192E-04
   1    4    8     1     8    1.5287E-02  1.0070E-04   1.5186E-02  0.000E+00  0.000E+00  0.000E+00  1.37892E+02  1.420E-01  1.028E+00  1.569E-04  2.200E-04 -1.193E-04
   1    4    9     1     9    1.5186E-02  1.0040E-04   1.5085E-02  0.000E+00  0.000E+00  0.000E+00  1.37592E+02  1.416E-01  1.025E+00  1.565E-04  2.202E-04 -1.198E-04
   1    4   10     1    10    1.5085E-02  1.0010E-04   1.4985E-02  0.000E+00  0.000E+00  0.000E+00  1.37291E+02  1.413E-01  1.022E+00  1.561E-04  2.212E-04 -1.211E-04
   1    4   11     1    11    1.4985E-02  9.9790E-05   1.4886E-02  0.000E+00  0.000E+00  0.000E+00  1.36991E+02  1.409E-01  1.020E+00  1.557E-04  2.226E-04 -1.228E-04
   1    4   12     1    12    1.4886E-02  9.9485E-05   1.4786E-02  0.000E+00  0.000E+00  0.000E+00  1.36691E+02  1.406E-01  1.017E+00  1.553E-04  2.245E-04 -1.250E-04
   1    4   13     1    13    1.4786E-02  9.9180E-05   1.4687E-02  0.000E+00  0.000E+00  0.000E+00  1.36390E+02  1.402E-01  1.015E+00  1.549E-04  2.269E-04 -1.277E-04
   1    4   14     1    14    1.4687E-02  9.8875E-05   1.4588E-02  0.000E+00  0.000E+00  0.000E+00  1.36090E+02  1.398E-01  1.012E+00  1.545E-04  2.298E-04 -1.309E-04
   1    4   15     1    15    1.4588E-02  9.8570E-05   1.4489E-02  0.000E+00  0.000E+00  0.000E+00  1.35789E+02  1.395E-01  1.010E+00  1.541E-04  2.332E-04 -1.346E-04
   1    4   16     1    16    1.4489E-02  9.8264E-05   1.4391E-02  0.000E+00  0.000E+00  0.000E+00  1.35489E+02  1.391E-01  1.007E+00  1.537E-04  2.371E-04 -1.389E-04
   1    4   17     1    17    1.4391E-02  9.7959E-05   1.4293E-02  0.000E+00  0.000E+00  0.000E+00  1.35189E+02  1.388E-01  1.004E+00  1.534E-04  2.416E-04 -1.436E-04
   1    4   18     1    18    1.4293E-02  9.7653E-05   1.4196E-02  0.000E+00  0.000E+00  0.000E+00  1.34888E+02  1.384E-01  1.002E+00  1.530E-04  2.447E-04 -1.471E-04
   1    4   19     1    19    1.4196E-02  9.7348E-05   1.4098E-02  0.000E+00  0.000E+00  0.000E+00  1.34588E+02  1.381E-01  9.993E-01  1.526E-04  2.447E-04 -1.474E-04
   1    4   20     1    20    1.4098E-02  9.7042E-05   1.4001E-02  0.000E+00  0.000E+00  0.000E+00  1.34288E+02  1.377E-01  9.968E-01  1.522E-04  2.448E-04 -1.478E-04
   1    4   21     1    21    1.4001E-02  9.6737E-05   1.3904E-02  0.000E+00  0.000E+00  0.000E+00  1.33987E+02  1.374E-01  9.942E-01  1.518E-04  2.504E-04 -1.537E-04
   1    4   22     1    22    1.3904E-02  9.6431E-05   1.3808E-02  0.000E+00  0.000E+00  0.000E+00  1.33687E+02  1.370E-01  9.916E-01  1.514E-04  2.568E-04 -1.603E-04
   1    4   23     1    23    1.3808E-02  9.6125E-05   1.3712E-02  0.000E+00  0.000E+00  0.000E+00  1.33387E+02  1.366E-01  9.890E-01  1.510E-04  2.636E-04 -1.675E-04
   1    4   24     1    24    1.3712E-02  9.5819E-05   1.3616E-02  0.000E+00  0.000E+00  0.000E+00  1.33086E+02  1.363E-01  9.864E-01  1.506E-04  2.697E-04 -1.739E-04
   1    4   25     1    25    1.3616E-02  9.5513E-05   1.3521E-02  0.000E+00  0.000E+00  0.000E+00  1.32786E+02  1.359E-01  9.838E-01  1.502E-04  2.718E-04 -1.763E-04
   1    4   26     1    26    1.3521E-02  9.5207E-05   1.3425E-02  0.000E+00  0.000E+00  0.000E+00  1.32486E+02  1.356E-01  9.812E-01  1.498E-04  2.791E-04 -1.839E-04
   1    4   27     1    27    1.3425E-02  9.4901E-05   1.3330E-02  0.000E+00  0.000E+00  0.000E+00  1.32185E+02  1.352E-01  9.786E-01  1.494E-04  2.870E-04 -1.922E-04
   1    4   28     1    28    1.3330E-02  9.4595E-05   1.3236E-02  0.000E+00  0.000E+00  0.000E+00  1.31885E+02  1.348E-01  9.760E-01  1.490E-04  2.940E-04 -1.994E-04
   1    4   29     1    29    1.3236E-02  9.4288E-05   1.3142E-02  0.000E+00  0.000E+00  0.000E+00  1.31584E+02  1.345E-01  9.734E-01  1.486E-04  3.016E-04 -2.073E-04
   1    4   30     1    30    1.3142E-02  9.3982E-05   1.3048E-02  0.000E+00  0.000E+00  0.000E+00  1.31284E+02  1.341E-01  9.708E-01  1.482E-04  3.099E-04 -2.159E-04
   1    4   31     1    31    1.3048E-02  9.3676E-05   1.2954E-02  0.000E+00  0.000E+00  0.000E+00  1.30984E+02  1.338E-01  9.682E-01  1.478E-04  3.203E-04 -2.266E-04
   1    4   32     1    32    1.2954E-02  9.3369E-05   1.2861E-02  0.000E+00  0.000E+00  0.000E+00  1.30683E+02  1.334E-01  9.656E-01  1.474E-04  3.294E-04 -2.361E-04
   1    4   33     1    33    1.2861E-02  9.3062E-05   1.2767E-02  0.000E+00  0.000E+00  0.000E+00  1.30383E+02  1.330E-01  9.629E-01  1.470E-04  3.404E-04 -2.474E-04
   1    4   34     1    34    1.2767E-02  9.2756E-05   1.2675E-02  0.000E+00  0.000E+00  0.000E+00  1.30083E+02  1.327E-01  9.603E-01  1.466E-04  3.510E-04 -2.583E-04
   1    4   35     1    35    1.2675E-02  9.2449E-05   1.2582E-02  0.000E+00  0.000E+00  0.000E+00  1.29782E+02  1.323E-01  9.577E-01  1.462E-04  3.560E-04 -2.636E-04
   1    4   36     1    36    1.2582E-02  9.2142E-05   1.2490E-02  0.000E+00  0.000E+00  0.000E+00  1.29482E+02  1.319E-01  9.551E-01  1.458E-04  3.732E-04 -2.811E-04
   1    4   37     1    37    1.2490E-02  9.1835E-05   1.2398E-02  0.000E+00  0.000E+00  0.000E+00  1.29182E+02  1.316E-01  9.524E-01  1.454E-04  3.806E-04 -2.888E-04
   1    4   38     1    38    1.2398E-02  9.1528E-05   1.2307E-02  0.000E+00  0.000E+00  0.000E+00  1.28881E+02  1.312E-01  9.498E-01  1.450E-04  3.817E-04 -2.903E-04
   1    4   39     1    39    1.2307E-02  9.1220E-05   1.2216E-02  0.000E+00  0.000E+00  0.000E+00  1.28581E+02  1.309E-01  9.471E-01  1.446E-04  3.830E-04 -2.918E-04
   1    4   40     1    40    1.2216E-02  9.0913E-05   1.2125E-02  0.000E+00  0.000E+00  0.000E+00  1.28280E+02  1.305E-01  9.445E-01  1.442E-04  3.843E-04 -2.935E-04
   1    4   41     1    41    1.2125E-02  9.0606E-05   1.2034E-02  0.000E+00  0.000E+00  0.000E+00  1.27980E+02  1.301E-01  9.419E-01  1.438E-04  3.486E-04 -2.580E-04
   1    4   42     1    42    1.2034E-02  9.0298E-05   1.1944E-02  0.000E+00  0.000E+00  0.000E+00  1.27680E+02  1.298E-01  9.392E-01  1.434E-04  3.693E-04 -2.791E-04
   1    4   43     1    43    1.1944E-02  8.9990E-05   1.1854E-02  0.000E+00  0.000E+00  0.000E+00  1.27379E+02  1.294E-01  9.365E-01  1.430E-04  3.711E-04 -2.812E-04
   1    4   44     1    44    1.1854E-02  8.9683E-05   1.1764E-02  0.000E+00  0.000E+00  0.000E+00  1.27079E+02  1.290E-01  9.339E-01  1.426E-04  3.731E-04 -2.835E-04
   1    4   45     1    45    1.1764E-02  8.9375E-05   1.1675E-02  0.000E+00  0.000E+00  0.000E+00  1.26779E+02  1.287E-01  9.312E-01  1.422E-04  3.753E-04 -2.860E-04
   1    4   46     1    46    1.1675E-02  8.9067E-05   1.1586E-02  0.000E+00  0.000E+00  0.000E+00  1.26478E+02  1.283E-01  9.286E-01  1.418E-04  3.779E-04 -2.889E-04
   1    4   47     1    47    1.1586E-02  8.8759E-05   1.1497E-02  0.000E+00  0.000E+00  0.000E+00  1.26178E+02  1.279E-01  9.259E-01  1.414E-04  4.111E-04 -3.224E-04
   1    4   48     1    48    1.1497E-02  8.8451E-05   1.1408E-02  0.000E+00  0.000E+00  0.000E+00  1.25878E+02  1.276E-01  9.232E-01  1.409E-04  4.151E-04 -3.267E-04
   1    4   49     1    49    1.1408E-02  8.8142E-05   1.1320E-02  0.000E+00  0.000E+00  0.000E+00  1.25577E+02  1.272E-01  9.205E-01  1.405E-04  4.854E-04 -3.973E-04
   1    4   50     1    50    1.1320E-02  8.7834E-05   1.1232E-02  0.000E+00  0.000E+00  0.000E+00  1.25277E+02  1.268E-01  9.179E-01  1.401E-04  5.714E-04 -4.836E-04
   1    4   51     1    51    1.1232E-02  8.7525E-05   1.1145E-02  0.000E+00  0.000E+00  0.000E+00  1.24976E+02  1.264E-01  9.152E-01  1.397E-04  5.237E-04 -4.362E-04
   1    4   52     1    52    1.1145E-02  8.7217E-05   1.1058E-02  0.000E+00  0.000E+00  0.000E+00  1.24676E+02  1.261E-01  9.125E-01  1.393E-04  4.974E-04 -4.103E-04
   1    4   53     1    53    1.1058E-02  8.6908E-05   1.0971E-02  0.000E+00  0.000E+00  0.000E+00  1.24376E+02  1.257E-01  9.098E-01  1.389E-04  4.971E-04 -4.103E-04
   1    4   54     1    54    1.0971E-02  8.6599E-05   1.0884E-02  0.000E+00  0.000E+00  0.000E+00  1.24075E+02  1.253E-01  9.071E-01  1.385E-04  5.078E-04 -4.213E-04
   1    4   55     1    55    1.0884E-02  8.6290E-05   1.0798E-02  0.000E+00  0.000E+00  0.000E+00  1.23775E+02  1.250E-01  9.044E-01  1.381E-04  5.702E-04 -4.840E-04
   1    4   56     1    56    1.0798E-02  8.5981E-05   1.0712E-02  0.000E+00  0.000E+00  0.000E+00  1.23475E+02  1.246E-01  9.017E-01  1.377E-04  4.939E-04 -4.080E-04
   1    4   57     1    57    1.0712E-02  8.5672E-05   1.0626E-02  0.000E+00  0.000E+00  0.000E+00  1.23174E+02  1.242E-01  8.990E-01  1.372E-04  4.138E-04 -3.282E-04
   1    4   58     1    58    1.0626E-02  8.5362E-05   1.0541E-02  0.000E+00  0.000E+00  0.000E+00  1.22874E+02  1.238E-01  8.963E-01  1.368E-04  4.100E-04 -3.246E-04
   1    4   59     1    59    1.0541E-02  8.5053E-05   1.0456E-02  0.000E+00  0.000E+00  0.000E+00  1.22573E+02  1.235E-01  8.936E-01  1.364E-04  4.067E-04 -3.217E-04
   1    4   60     1    60    1.0456E-02  8.4743E-05   1.0371E-02  0.000E+00  0.000E+00  0.000E+00  1.22273E+02  1.231E-01  8.909E-01  1.360E-04  3.751E-04 -2.904E-04
   1    4   61     1    61    1.0371E-02  8.4433E-05   1.0287E-02  0.000E+00  0.000E+00  0.000E+00  1.21973E+02  1.227E-01  8.881E-01  1.356E-04  3.730E-04 -2.886E-04
   1    4   62     1    62    1.0287E-02  8.4124E-05   1.0203E-02  0.000E+00  0.000E+00  0.000E+00  1.21672E+02  1.223E-01  8.854E-01  1.352E-04  3.712E-04 -2.872E-04
   1    4   63     1    63    1.0203E-02  8.3814E-05   1.0119E-02  0.000E+00  0.000E+00  0.000E+00  1.21372E+02  1.220E-01  8.827E-01  1.348E-04  3.697E-04 -2.859E-04
   1    4   64     1    64    1.0119E-02  8.3503E-05   1.0035E-02  0.000E+00  0.000E+00  0.000E+00  1.21072E+02  1.216E-01  8.800E-01  1.343E-04  3.683E-04 -2.849E-04
   1    4   65     1    65    1.0035E-02  8.3193E-05   9.9520E-03  0.000E+00  0.000E+00  0.000E+00  1.20771E+02  1.212E-01  8.772E-01  1.339E-04  3.482E-04 -2.651E-04
   1    4   66     1    66    9.9520E-03  8.2883E-05   9.8691E-03  0.000E+00  0.000E+00  0.000E+00  1.20471E+02  1.208E-01  8.745E-01  1.335E-04  3.831E-04 -3.003E-04
   1    4   67     1    67    9.8691E-03  8.2572E-05   9.7865E-03  0.000E+00  0.000E+00  0.000E+00  1.20170E+02  1.204E-01  8.717E-01  1.331E-04  3.822E-04 -2.997E-04
   1    4   68     1    68    9.7865E-03  8.2261E-05   9.7043E-03  0.000E+00  0.000E+00  0.000E+00  1.19870E+02  1.201E-01  8.690E-01  1.327E-04  3.815E-04 -2.993E-04
   1    4   69     1    69    9.7043E-03  8.1950E-05   9.6223E-03  0.000E+00  0.000E+00  0.000E+00  1.19570E+02  1.197E-01  8.662E-01  1.322E-04  3.808E-04 -2.989E-04
   1    4   70     1    70    9.6223E-03  8.1639E-05   9.5407E-03  0.000E+00  0.000E+00  0.000E+00  1.19269E+02  1.193E-01  8.635E-01  1.318E-04  3.803E-04 -2.987E-04
   1    4   71     1    71    9.5407E-03  8.1328E-05   9.4594E-03  0.000E+00  0.000E+00  0.000E+00  1.18969E+02  1.189E-01  8.607E-01  1.314E-04  3.543E-04 -2.730E-04
   1    4   72     1    72    9.4594E-03  8.1017E-05   9.3784E-03  0.000E+00  0.000E+00  0.000E+00  1.18669E+02  1.185E-01  8.580E-01  1.310E-04  3.430E-04 -2.620E-04
   1    4   73     1    73    9.3784E-03  8.0705E-05   9.2976E-03  0.000E+00  0.000E+00  0.000E+00  1.18368E+02  1.182E-01  8.552E-01  1.306E-04  3.305E-04 -2.498E-04
   1    4   74     1    74    9.2976E-03  8.0394E-05   9.2173E-03  0.000E+00  0.000E+00  0.000E+00  1.18068E+02  1.178E-01  8.524E-01  1.301E-04  3.212E-04 -2.409E-04
   1    4   75     1    75    9.2173E-03  8.0082E-05   9.1372E-03  0.000E+00  0.000E+00  0.000E+00  1.17767E+02  1.174E-01  8.496E-01  1.297E-04  3.098E-04 -2.297E-04
   1    4   76     1    76    9.1372E-03  7.9770E-05   9.0574E-03  0.000E+00  0.000E+00  0.000E+00  1.17467E+02  1.170E-01  8.469E-01  1.293E-04  2.997E-04 -2.200E-04
   1    4   77     1    77    9.0574E-03  7.9458E-05   8.9779E-03  0.000E+00  0.000E+00  0.000E+00  1.17167E+02  1.166E-01  8.441E-01  1.289E-04  2.924E-04 -2.129E-04
   1    4   78     1    78    8.9779E-03  7.9146E-05   8.8988E-03  0.000E+00  0.000E+00  0.000E+00  1.16866E+02  1.162E-01  8.413E-01  1.284E-04  2.814E-04 -2.023E-04
   1    4   79     1    79    8.8988E-03  7.8833E-05   8.8200E-03  0.000E+00  0.000E+00  0.000E+00  1.16566E+02  1.158E-01  8.385E-01  1.280E-04  2.737E-04 -1.949E-04
   1    4   80     1    80    8.8200E-03  7.8520E-05   8.7414E-03  0.000E+00  0.000E+00  0.000E+00  1.16265E+02  1.155E-01  8.357E-01  1.276E-04  2.695E-04 -1.910E-04
   1    4   81     1    81    8.7414E-03  7.8208E-05   8.6632E-03  0.000E+00  0.000E+00  0.000E+00  1.15965E+02  1.151E-01  8.329E-01  1.272E-04  2.583E-04 -1.801E-04
   1    4   82     1    82    8.6632E-03  7.7895E-05   8.5853E-03  0.000E+00  0.000E+00  0.000E+00  1.15665E+02  1.147E-01  8.301E-01  1.267E-04  2.493E-04 -1.714E-04
   1    4   83     1    83    8.5853E-03  7.7582E-05   8.5078E-03  0.000E+00  0.000E+00  0.000E+00  1.15364E+02  1.143E-01  8.273E-01  1.263E-04  2.500E-04 -1.724E-04
   1    4   84     1    84    8.5078E-03  7.7268E-05   8.4305E-03  0.000E+00  0.000E+00  0.000E+00  1.15064E+02  1.139E-01  8.244E-01  1.259E-04  2.438E-04 -1.665E-04
   1    4   85     1    85    8.4305E-03  7.6955E-05   8.3535E-03  0.000E+00  0.000E+00  0.000E+00  1.14764E+02  1.135E-01  8.216E-01  1.254E-04  2.331E-04 -1.561E-04
   1    4   86     1    86    8.3535E-03  7.6641E-05   8.2769E-03  0.000E+00  0.000E+00  0.000E+00  1.14463E+02  1.131E-01  8.188E-01  1.250E-04  2.250E-04 -1.484E-04
   1    4   87     1    87    8.2769E-03  7.6327E-05   8.2006E-03  0.000E+00  0.000E+00  0.000E+00  1.14163E+02  1.127E-01  8.160E-01  1.246E-04  2.260E-04 -1.497E-04
   1    4   88     1    88    8.2006E-03  7.6013E-05   8.1246E-03  0.000E+00  0.000E+00  0.000E+00  1.13862E+02  1.123E-01  8.131E-01  1.241E-04  2.272E-04 -1.512E-04
   1    4   89     1    89    8.1246E-03  7.5699E-05   8.0489E-03  0.000E+00  0.000E+00  0.000E+00  1.13562E+02  1.119E-01  8.103E-01  1.237E-04  2.194E-04 -1.437E-04
   1    4   90     1    90    8.0489E-03  7.5385E-05   7.9735E-03  0.000E+00  0.000E+00  0.000E+00  1.13262E+02  1.116E-01  8.074E-01  1.233E-04  2.095E-04 -1.341E-04
   1    4   91     1    91    7.9735E-03  7.5070E-05   7.8984E-03  0.000E+00  0.000E+00  0.000E+00  1.12961E+02  1.112E-01  8.046E-01  1.228E-04  2.025E-04 -1.275E-04
   1    4   92     1    92    7.8984E-03  7.4755E-05   7.8236E-03  0.000E+00  0.000E+00  0.000E+00  1.12661E+02  1.108E-01  8.017E-01  1.224E-04  2.039E-04 -1.292E-04
   1    4   93     1    93    7.8236E-03  7.4440E-05   7.7492E-03  0.000E+00  0.000E+00  0.000E+00  1.12360E+02  1.104E-01  7.989E-01  1.220E-04  2.054E-04 -1.310E-04
   1    4   94     1    94    7.7492E-03  7.4125E-05   7.6751E-03  0.000E+00  0.000E+00  0.000E+00  1.12060E+02  1.100E-01  7.960E-01  1.215E-04  2.069E-04 -1.328E-04
   1    4   95     1    95    7.6751E-03  7.3809E-05   7.6013E-03  0.000E+00  0.000E+00  0.000E+00  1.11760E+02  1.096E-01  7.931E-01  1.211E-04  1.998E-04 -1.260E-04
   1    4   96     1    96    7.6013E-03  7.3494E-05   7.5278E-03  0.000E+00  0.000E+00  0.000E+00  1.11459E+02  1.092E-01  7.902E-01  1.206E-04  1.907E-04 -1.172E-04
   1    4   97     1    97    7.5278E-03  7.3178E-05   7.4546E-03  0.000E+00  0.000E+00  0.000E+00  1.11159E+02  1.088E-01  7.874E-01  1.202E-04  1.833E-04 -1.102E-04
   1    4   98     1    98    7.4546E-03  7.2862E-05   7.3817E-03  0.000E+00  0.000E+00  0.000E+00  1.10858E+02  1.084E-01  7.845E-01  1.198E-04  1.851E-04 -1.122E-04
   1    4   99     1    99    7.3817E-03  7.2545E-05   7.3092E-03  0.000E+00  0.000E+00  0.000E+00  1.10558E+02  1.080E-01  7.816E-01  1.193E-04  1.868E-04 -1.143E-04
   1    4  100     1   100    7.3092E-03  7.2229E-05   7.2370E-03  0.000E+00  0.000E+00  0.000E+00  1.10258E+02  1.076E-01  7.787E-01  1.189E-04  1.886E-04 -1.164E-04



1
  VOLUMETRIC BUDGET FOR UNSATURATED ZONE BENEATH STREAMS AT END OF TIME STEP    30 STRESS PERIOD  36
  ------------------------------------------------------------------------------------------------

    CUMULATIVE VOLUMES             L**3    RATES FOR THIS TIME STEP         L**3/T
    ------------------                     ------------------------


          STREAM LOSS =     30238900.0000            STREAM LOSS =        8.7630E-03
    CHANGE IN STORAGE =       931892.0000      CHANGE IN STORAGE =       -2.2101E-02
       RECHARGE TO GW =     29314360.0000         RECHARGE TO GW =        3.0861E-02

             TOTAL IN =     30238900.0000               TOTAL IN =        3.0864E-02

            TOTAL OUT =     30246252.0000              TOTAL OUT =        3.0861E-02

             IN - OUT =        -7352.0000               IN - OUT =        3.0175E-06

  PERCENT DISCREPANCY =           -0.01      PERCENT DISCREPANCY =             0.00



1
  VOLUMETRIC BUDGET FOR ENTIRE MODEL AT END OF TIME STEP   30, STRESS PERIOD  36
  ------------------------------------------------------------------------------

     CUMULATIVE VOLUMES      L**3       RATES FOR THIS TIME STEP      L**3/T
     ------------------                 ------------------------

           IN:                                      IN:
           ---                                      ---
             STORAGE     =   107336880.0000               STORAGE     =           0.5069
       CONSTANT HEAD     =           0.0000         CONSTANT HEAD     =           0.0000
               WELLS     =           0.0000                 WELLS     =           0.0000
     HEAD DEP BOUNDS     =     1083075.6250       HEAD DEP BOUNDS     =       7.5361E-02
      STREAM LEAKAGE     =    29314022.0000        STREAM LEAKAGE     =       3.0861E-02

                TOTAL IN =   137733968.0000                  TOTAL IN =           0.6131

          OUT:                                     OUT:
          ----                                     ----
             STORAGE     =     3027683.2500               STORAGE     =           0.0000
       CONSTANT HEAD     =           0.0000         CONSTANT HEAD     =           0.0000
               WELLS     =   118346984.0000                 WELLS     =           0.6131
     HEAD DEP BOUNDS     =    16359348.0000       HEAD DEP BOUNDS     =           0.0000
      STREAM LEAKAGE     =           0.0000        STREAM LEAKAGE     =           0.0000

               TOTAL OUT =   137734016.0000                 TOTAL OUT =           0.6131

                IN - OUT =         -48.0000                  IN - OUT =           0.0000

     PERCENT DISCREPANCY =          -0.00         PERCENT DISCREPANCY =           0.00






         TIME SUMMARY AT END OF TIME STEP   30 IN STRESS PERIOD   36
                    SECONDS     MINUTES      HOURS       DAYS        YEARS
                    -----------------------------------------------------------
   TIME STEP LENGTH 2.49961E+05  4166.0      69.434      2.8931     7.92080E-03
 STRESS PERIOD TIME 2.59200E+06  43200.      720.00      30.000     8.21355E-02
         TOTAL TIME 9.33120E+07 1.55520E+06  25920.      1080.0      2.9569    
1
1
                            STRESS PERIOD NO.   37, LENGTH =   2592000.    
                            -----------------------------------------------

                              NUMBER OF TIME STEPS =    30

                               MULTIPLIER FOR DELT =     1.100

                            INITIAL TIME STEP SIZE =   15757.40    

 REUSING NON-PARAMETER WELLS FROM LAST STRESS PERIOD

      1 WELL 

 REUSING NON-PARAMETER GHB CELLS FROM LAST STRESS PERIOD

      7 GHB CELLS



 CLASSIFICATION & COUNT OF STREAM SEGMENTS BASED ON SOURCE OF INFLOW:

                HEADWATER     DIVERSION     RECEIVES TRIBUTARY FLOW
                ---------     ---------     -----------------------
                     1              0               0



                    INPUT DATA FOR EACH STREAM SEGMENT
 ---------------------------------------------------------------------------------------------

 SEGMENT    SEG.     INFLOW   OVERLAND   STREAM    STREAM   ICALC  OUTFLOW  DIVERSION PRIORITY
    NO.    LENGTH     RATE     RUNOFF      ET       PPT.    METH.  TO SEG.  FROM SEG.    NO.

      1  2.000E+04 6.200E-02 0.000E+00 0.000E+00 0.000E+00    2        0        0        0


         STREAMBED PROPERTIES AND STREAM DIMENSIONS

 SEGMENT     BED HYD. COND.      BED THICKNESS     ELEV.-TOP OF BED     WIDTH OF STREAM     DEPTH OF STREAM    STREAM ROUGHNESS
    No.     UPPER     LOWER     UPPER     LOWER     UPPER     LOWER     UPPER     LOWER     UPPER     LOWER   CHANNEL      BANK

     1  3.500E-07 3.500E-07                                                                                 3.000E-02 4.000E-02

  EIGHT POINT CROSS-SECTION DATA FOR SEGMENTS WITH ICALC = 2
    X VALUES X VALUES START FROM LEFT SIDE LOOKING DOWNSTREAM

     SEGMENT NO.        X1        X2        X3        X4        X5        X6        X7        X8
            1      0.000E+00 2.000E+00 4.000E+00 6.000E+00 8.000E+00 1.000E+01 1.200E+01 1.400E+01

    Z VALUES ARE RELATIVE TO STREAMBED ELEVATION

     SEGMENT NO.          Z1        Z2        Z3        Z4        Z5        Z6        Z7        Z8
            1      6.000E+00 4.500E+00 3.500E+00 0.000E+00 3.000E-01 3.500E+00 4.500E+00 6.000E+00



 
 SOLVING FOR HEAD 
                                                   Max.-Head-Change                         Max.-Flux-Residual
  Residual-Control   Outer-Iter.   Inner-Iter.     Column Row Layer    Maximum-Head-Change  Column Row Layer    Maximum-Flux-Residual          L2-NORM 
          0                 1           2             1    1     1      -0.6071852130E-02      50    3    1        -0.1259619854E+00      0.1591122408E+00
          0                 2           2             1    1     1       0.5944004223E-03      50    3    1         0.2027499943E-01      0.2219288496E-01
          0                 3           1             1    1     1      -0.5247576441E-04      50    3    1        -0.1830980038E-02      0.2015522761E-02
          0                 4           1             1    1     1       0.4130977482E-05      50    3    1         0.1468234988E-03      0.1615095365E-03
          0                 5           1             1    1     1      -0.2859085036E-06      50    3    1        -0.1032064720E-04      0.1135531744E-04

    ------------------------------------------------
       NWT REQUIRED            5 OUTER ITERATIONS 
       AND A TOTAL OF          7 INNER ITERATIONS.
    ------------------------------------------------

 NO OUTPUT CONTROL FOR STRESS PERIOD   37   TIME STEP    1
 
 WELLS WITH REDUCED PUMPING FOR STRESS PERIOD    37 TIME STEP     1
   LAY   ROW   COL         APPL.Q          ACT.Q        GW-HEAD       CELL-BOT
     1     3    50  -0.680112E+00  -0.349679E+00   0.570566E-03   0.000000E+00
     1     5    55  -0.680112E+00  -0.263342E+00   0.470887E-03   0.000000E+00
 
 
 SOLVING FOR HEAD 
                                                   Max.-Head-Change                         Max.-Flux-Residual
  Residual-Control   Outer-Iter.   Inner-Iter.     Column Row Layer    Maximum-Head-Change  Column Row Layer    Maximum-Flux-Residual          L2-NORM 
          0                 1           2             1    1     1      -0.6679215807E-02       1    3    1        -0.1264325025E-02      0.2124055528E-01
          0                 2           2             1    1     1       0.6529293990E-03       1    3    1         0.1264316499E-03      0.2062592088E-02
          0                 3           1             1    1     1      -0.5756464596E-04       1    3    1        -0.1137891643E-04      0.1858062517E-03
          0                 4           1             1    1     1       0.4525838039E-05       1    3    1         0.9114508792E-06      0.1509299372E-04
          0                 5           1             1    1     1      -0.3128780117E-06       1    3    1        -0.6407411135E-07      0.1079224771E-05

    ------------------------------------------------
       NWT REQUIRED            5 OUTER ITERATIONS 
       AND A TOTAL OF          7 INNER ITERATIONS.
    ------------------------------------------------

 NO OUTPUT CONTROL FOR STRESS PERIOD   37   TIME STEP    2
 
 WELLS WITH REDUCED PUMPING FOR STRESS PERIOD    37 TIME STEP     2
   LAY   ROW   COL         APPL.Q          ACT.Q        GW-HEAD       CELL-BOT
     1     3    50  -0.680112E+00  -0.349595E+00   0.570474E-03   0.000000E+00
     1     5    55  -0.680112E+00  -0.263277E+00   0.470814E-03   0.000000E+00
 
 
 SOLVING FOR HEAD 
                                                   Max.-Head-Change                         Max.-Flux-Residual
  Residual-Control   Outer-Iter.   Inner-Iter.     Column Row Layer    Maximum-Head-Change  Column Row Layer    Maximum-Flux-Residual          L2-NORM 
          0                 1           2             1    1     1      -0.7346705416E-02       1    3    1        -0.1264086288E-02      0.2124005488E-01
          0                 2           2             1    1     1       0.7170893946E-03       1    3    1         0.1264076745E-03      0.2062796180E-02
          0                 3           1             1    1     1      -0.6312797995E-04       1    3    1        -0.1137676665E-04      0.1858817310E-03
          0                 4           1             1    1     1       0.4956290667E-05       1    3    1         0.9112785904E-06      0.1511520667E-04
          0                 5           1             1    1     1      -0.3421937593E-06       1    3    1        -0.6406200725E-07      0.1082599272E-05

    ------------------------------------------------
       NWT REQUIRED            5 OUTER ITERATIONS 
       AND A TOTAL OF          7 INNER ITERATIONS.
    ------------------------------------------------

 NO OUTPUT CONTROL FOR STRESS PERIOD   37   TIME STEP    3
 
 WELLS WITH REDUCED PUMPING FOR STRESS PERIOD    37 TIME STEP     3
   LAY   ROW   COL         APPL.Q          ACT.Q        GW-HEAD       CELL-BOT
     1     3    50  -0.679912E+00  -0.349523E+00   0.570507E-03   0.000000E+00
     1     5    55  -0.679912E+00  -0.263216E+00   0.470833E-03   0.000000E+00
 
 
 SOLVING FOR HEAD 
                                                   Max.-Head-Change                         Max.-Flux-Residual
  Residual-Control   Outer-Iter.   Inner-Iter.     Column Row Layer    Maximum-Head-Change  Column Row Layer    Maximum-Flux-Residual          L2-NORM 
          0                 1           2             1    1     1      -0.8080127256E-02       1    3    1        -0.1263660663E-02      0.2123773785E-01
          0                 2           2             1    1     1       0.7874116726E-03       1    3    1         0.1263650219E-03      0.2062651330E-02
          0                 3           1             1    1     1      -0.6920900571E-04       1    3    1        -0.1137293656E-04      0.1859137313E-03
          0                 4           1             1    1     1       0.5425415925E-05       1    3    1         0.9109716892E-06      0.1513367852E-04
          0                 5           1             1    1     1      -0.3740452464E-06       1    3    1        -0.6404044584E-07      0.1085781697E-05

    ------------------------------------------------
       NWT REQUIRED            5 OUTER ITERATIONS 
       AND A TOTAL OF          7 INNER ITERATIONS.
    ------------------------------------------------

 NO OUTPUT CONTROL FOR STRESS PERIOD   37   TIME STEP    4
 
 WELLS WITH REDUCED PUMPING FOR STRESS PERIOD    37 TIME STEP     4
   LAY   ROW   COL         APPL.Q          ACT.Q        GW-HEAD       CELL-BOT
     1     3    50  -0.680094E+00  -0.349444E+00   0.570318E-03   0.000000E+00
     1     5    55  -0.680094E+00  -0.263151E+00   0.470681E-03   0.000000E+00
 
 
 SOLVING FOR HEAD 
                                                   Max.-Head-Change                         Max.-Flux-Residual
  Residual-Control   Outer-Iter.   Inner-Iter.     Column Row Layer    Maximum-Head-Change  Column Row Layer    Maximum-Flux-Residual          L2-NORM 
          0                 1           2             1    1     1      -0.8886046946E-02       1    3    1        -0.1263277114E-02      0.2123509440E-01
          0                 2           2             1    1     1       0.8644950979E-03       1    3    1         0.1263265711E-03      0.2062375359E-02
          0                 3           1             1    1     1      -0.7585631460E-04       1    3    1        -0.1136948546E-04      0.1859332810E-03
          0                 4           1             1    1     1       0.5936668628E-05       1    5    1         0.9106951637E-06      0.1515144574E-04
          0                 5           1             1    1     1      -0.4086444150E-06       1    3    1        -0.6402099118E-07      0.1088988674E-05

    ------------------------------------------------
       NWT REQUIRED            5 OUTER ITERATIONS 
       AND A TOTAL OF          7 INNER ITERATIONS.
    ------------------------------------------------

 NO OUTPUT CONTROL FOR STRESS PERIOD   37   TIME STEP    5
 
 WELLS WITH REDUCED PUMPING FOR STRESS PERIOD    37 TIME STEP     5
   LAY   ROW   COL         APPL.Q          ACT.Q        GW-HEAD       CELL-BOT
     1     3    50  -0.680047E+00  -0.349358E+00   0.570250E-03   0.000000E+00
     1     5    55  -0.680047E+00  -0.263078E+00   0.470621E-03   0.000000E+00
 
 
 SOLVING FOR HEAD 
                                                   Max.-Head-Change                         Max.-Flux-Residual
  Residual-Control   Outer-Iter.   Inner-Iter.     Column Row Layer    Maximum-Head-Change  Column Row Layer    Maximum-Flux-Residual          L2-NORM 
          0                 1           2             1    1     1      -0.9771744955E-02       1    3    1        -0.1262944427E-02      0.2123078117E-01
          0                 2           2             1    1     1       0.9490035997E-03       1    3    1         0.1262931968E-03      0.2062071208E-02
          0                 3           1             1    1     1      -0.8312374545E-04       1    3    1        -0.1136649217E-04      0.1859604925E-03
          0                 4           1             1    1     1       0.6493868566E-05       1    3    1         0.9104552703E-06      0.1517043610E-04
          0                 5           1             1    1     1      -0.4462243232E-06       1    5    1        -0.6400412644E-07      0.1092354635E-05

    ------------------------------------------------
       NWT REQUIRED            5 OUTER ITERATIONS 
       AND A TOTAL OF          7 INNER ITERATIONS.
    ------------------------------------------------

 NO OUTPUT CONTROL FOR STRESS PERIOD   37   TIME STEP    6
 
 WELLS WITH REDUCED PUMPING FOR STRESS PERIOD    37 TIME STEP     6
   LAY   ROW   COL         APPL.Q          ACT.Q        GW-HEAD       CELL-BOT
     1     3    50  -0.679961E+00  -0.349264E+00   0.570195E-03   0.000000E+00
     1     5    55  -0.679961E+00  -0.262999E+00   0.470570E-03   0.000000E+00
 
 
 SOLVING FOR HEAD 
                                                   Max.-Head-Change                         Max.-Flux-Residual
  Residual-Control   Outer-Iter.   Inner-Iter.     Column Row Layer    Maximum-Head-Change  Column Row Layer    Maximum-Flux-Residual          L2-NORM 
          0                 1           2             1    1     1      -0.1074522128E-01       1    3    1        -0.1262639166E-02      0.2122625626E-01
          0                 2           2             1    1     1       0.1041667036E-02       1    3    1         0.1262625547E-03      0.2061588716E-02
          0                 3           1             1    1     1      -0.9107048499E-04       1    3    1        -0.1136374575E-04      0.1859654828E-03
          0                 4           1             1    1     1       0.7101207151E-05       1    5    1         0.9102351441E-06      0.1518732450E-04
          0                 5           1             1    1     1      -0.4870402752E-06       1    3    1        -0.6398865082E-07      0.1095601589E-05

    ------------------------------------------------
       NWT REQUIRED            5 OUTER ITERATIONS 
       AND A TOTAL OF          7 INNER ITERATIONS.
    ------------------------------------------------

 NO OUTPUT CONTROL FOR STRESS PERIOD   37   TIME STEP    7
 
 WELLS WITH REDUCED PUMPING FOR STRESS PERIOD    37 TIME STEP     7
   LAY   ROW   COL         APPL.Q          ACT.Q        GW-HEAD       CELL-BOT
     1     3    50  -0.679922E+00  -0.349161E+00   0.570104E-03   0.000000E+00
     1     5    55  -0.679922E+00  -0.262913E+00   0.470491E-03   0.000000E+00
 
 
 SOLVING FOR HEAD 
                                                   Max.-Head-Change                         Max.-Flux-Residual
  Residual-Control   Outer-Iter.   Inner-Iter.     Column Row Layer    Maximum-Head-Change  Column Row Layer    Maximum-Flux-Residual          L2-NORM 
          0                 1           2             1    1     1      -0.1181524570E-01       1    3    1        -0.1262340514E-02      0.2122073036E-01
          0                 2           2             1    1     1       0.1143286104E-02       1    3    1         0.1262325628E-03      0.2061089875E-02
          0                 3           1             1    1     1      -0.9976149418E-04       1    3    1        -0.1136105888E-04      0.1859643222E-03
          0                 4           1             1    1     1       0.7763275861E-05       1    5    1         0.9100197715E-06      0.1520351142E-04
          0                 5           1             1    1     1      -0.5313705749E-06       1    3    1        -0.6397351626E-07      0.1098851205E-05

    ------------------------------------------------
       NWT REQUIRED            5 OUTER ITERATIONS 
       AND A TOTAL OF          7 INNER ITERATIONS.
    ------------------------------------------------

 NO OUTPUT CONTROL FOR STRESS PERIOD   37   TIME STEP    8
 
 WELLS WITH REDUCED PUMPING FOR STRESS PERIOD    37 TIME STEP     8
   LAY   ROW   COL         APPL.Q          ACT.Q        GW-HEAD       CELL-BOT
     1     3    50  -0.679940E+00  -0.349048E+00   0.569971E-03   0.000000E+00
     1     5    55  -0.679940E+00  -0.262818E+00   0.470378E-03   0.000000E+00
 
 
 SOLVING FOR HEAD 
                                                   Max.-Head-Change                         Max.-Flux-Residual
  Residual-Control   Outer-Iter.   Inner-Iter.     Column Row Layer    Maximum-Head-Change  Column Row Layer    Maximum-Flux-Residual          L2-NORM 
          0                 1           2             1    1     1      -0.1299155751E-01       1    3    1        -0.1262033923E-02      0.2122071571E-01
          0                 2           2             1    1     1       0.1254759372E-02       1    2    1         0.1262018773E-03      0.2060734554E-02
          0                 3           2             1    1     1      -0.1092708138E-03       1    3    1        -0.1135830092E-04      0.1859275231E-03
          0                 4           1             1    1     1       0.8485919026E-05       1    5    1         0.9097986968E-06      0.1521435324E-04
          0                 5           1             1    1     1      -0.5795729106E-06       1    5    1        -0.6395798025E-07      0.1101548137E-05

    ------------------------------------------------
       NWT REQUIRED            5 OUTER ITERATIONS 
       AND A TOTAL OF          8 INNER ITERATIONS.
    ------------------------------------------------

 NO OUTPUT CONTROL FOR STRESS PERIOD   37   TIME STEP    9
 
 WELLS WITH REDUCED PUMPING FOR STRESS PERIOD    37 TIME STEP     9
   LAY   ROW   COL         APPL.Q          ACT.Q        GW-HEAD       CELL-BOT
     1     3    50  -0.679972E+00  -0.348925E+00   0.569817E-03   0.000000E+00
     1     5    55  -0.679972E+00  -0.262715E+00   0.470249E-03   0.000000E+00
 
 
 SOLVING FOR HEAD 
                                                   Max.-Head-Change                         Max.-Flux-Residual
  Residual-Control   Outer-Iter.   Inner-Iter.     Column Row Layer    Maximum-Head-Change  Column Row Layer    Maximum-Flux-Residual          L2-NORM 
          0                 1           2             2    1     1      -0.1428918518E-01       1    3    1        -0.1261724765E-02      0.2122099784E-01
          0                 2           2             2    1     1       0.1377968486E-02       1    1    1         0.1261716605E-03      0.2060805519E-02
          0                 3           2             2    1     1      -0.1197874571E-03       1    2    1        -0.1135553891E-04      0.1859687537E-03
          0                 4           1             3    1     1       0.9284359255E-05       1    2    1         0.9095777145E-06      0.1523289255E-04
          0                 5           1             3    1     1      -0.6326724931E-06       1    3    1        -0.6394234831E-07      0.1104894102E-05

    ------------------------------------------------
       NWT REQUIRED            5 OUTER ITERATIONS 
       AND A TOTAL OF          8 INNER ITERATIONS.
    ------------------------------------------------

 NO OUTPUT CONTROL FOR STRESS PERIOD   37   TIME STEP   10
 
 WELLS WITH REDUCED PUMPING FOR STRESS PERIOD    37 TIME STEP    10
   LAY   ROW   COL         APPL.Q          ACT.Q        GW-HEAD       CELL-BOT
     1     3    50  -0.679942E+00  -0.348790E+00   0.569685E-03   0.000000E+00
     1     5    55  -0.679942E+00  -0.262602E+00   0.470135E-03   0.000000E+00
 
 
 SOLVING FOR HEAD 
                                                   Max.-Head-Change                         Max.-Flux-Residual
  Residual-Control   Outer-Iter.   Inner-Iter.     Column Row Layer    Maximum-Head-Change  Column Row Layer    Maximum-Flux-Residual          L2-NORM 
          0                 1           2             1    1     1      -0.1573053836E-01       3    3    1        -0.1264816040E-02      0.2121897409E-01
          0                 2           2             1    1     1       0.1514231305E-02       3    3    1         0.1264796658E-03      0.2060746197E-02
          0                 3           2             2    1     1      -0.1313730323E-03       3    3    1        -0.1138334212E-04      0.1859994757E-03
          0                 4           1             2    1     1       0.1015986157E-04       3    5    1         0.9118040936E-06      0.1525055089E-04
          0                 5           1             1    1     1      -0.6906204742E-06       3    3    1        -0.6409896258E-07      0.1108176809E-05

    ------------------------------------------------
       NWT REQUIRED            5 OUTER ITERATIONS 
       AND A TOTAL OF          8 INNER ITERATIONS.
    ------------------------------------------------

 NO OUTPUT CONTROL FOR STRESS PERIOD   37   TIME STEP   11
 
 WELLS WITH REDUCED PUMPING FOR STRESS PERIOD    37 TIME STEP    11
   LAY   ROW   COL         APPL.Q          ACT.Q        GW-HEAD       CELL-BOT
     1     3    50  -0.680022E+00  -0.348642E+00   0.569477E-03   0.000000E+00
     1     5    55  -0.680022E+00  -0.262478E+00   0.469963E-03   0.000000E+00
 
 
 SOLVING FOR HEAD 
                                                   Max.-Head-Change                         Max.-Flux-Residual
  Residual-Control   Outer-Iter.   Inner-Iter.     Column Row Layer    Maximum-Head-Change  Column Row Layer    Maximum-Flux-Residual          L2-NORM 
          0                 1           2             1    1     1      -0.1731341335E-01       1    3    1        -0.1265831957E-02      0.2121458755E-01
          0                 2           2             1    1     1       0.1663619881E-02       1    3    1         0.1265811780E-03      0.2060367727E-02
          0                 3           2             1    1     1      -0.1440418537E-03       1    3    1        -0.1139249532E-04      0.1860015756E-03
          0                 4           1             1    1     1       0.1111490557E-04       1    3    1         0.9125370397E-06      0.1526627413E-04
          0                 5           1             1    1     1      -0.7537296125E-06       1    3    1        -0.6415048404E-07      0.1111338927E-05

    ------------------------------------------------
       NWT REQUIRED            5 OUTER ITERATIONS 
       AND A TOTAL OF          8 INNER ITERATIONS.
    ------------------------------------------------

 NO OUTPUT CONTROL FOR STRESS PERIOD   37   TIME STEP   12
 
 WELLS WITH REDUCED PUMPING FOR STRESS PERIOD    37 TIME STEP    12
   LAY   ROW   COL         APPL.Q          ACT.Q        GW-HEAD       CELL-BOT
     1     3    50  -0.680034E+00  -0.348480E+00   0.569292E-03   0.000000E+00
     1     5    55  -0.680034E+00  -0.262329E+00   0.469792E-03   0.000000E+00
 
 
 SOLVING FOR HEAD 
                                                   Max.-Head-Change                         Max.-Flux-Residual
  Residual-Control   Outer-Iter.   Inner-Iter.     Column Row Layer    Maximum-Head-Change  Column Row Layer    Maximum-Flux-Residual          L2-NORM 
          0                 1           2             1    1     1      -0.1904397781E-01       1    3    1        -0.1265797041E-02      0.2120994507E-01
          0                 2           2             1    1     1       0.1826604930E-02       1    3    1         0.1265772852E-03      0.2059825826E-02
          0                 3           2             1    1     1      -0.1578332469E-03       1    3    1        -0.1139216477E-04      0.1859772759E-03
          0                 4           1             1    1     1       0.1215162885E-04       1    5    1         0.9125103269E-06      0.1527869026E-04
          0                 5           1             1    1     1      -0.8218784277E-06       1    5    1        -0.6414861531E-07      0.1114158774E-05

    ------------------------------------------------
       NWT REQUIRED            5 OUTER ITERATIONS 
       AND A TOTAL OF          8 INNER ITERATIONS.
    ------------------------------------------------

 NO OUTPUT CONTROL FOR STRESS PERIOD   37   TIME STEP   13
 
 WELLS WITH REDUCED PUMPING FOR STRESS PERIOD    37 TIME STEP    13
   LAY   ROW   COL         APPL.Q          ACT.Q        GW-HEAD       CELL-BOT
     1     3    50  -0.680034E+00  -0.348302E+00   0.569097E-03   0.000000E+00
     1     5    55  -0.680034E+00  -0.262167E+00   0.469611E-03   0.000000E+00
 
 
 SOLVING FOR HEAD 
                                                   Max.-Head-Change                         Max.-Flux-Residual
  Residual-Control   Outer-Iter.   Inner-Iter.     Column Row Layer    Maximum-Head-Change  Column Row Layer    Maximum-Flux-Residual          L2-NORM 
          0                 1           2             1    1     1      -0.2094012696E-01       1    3    1        -0.1264740409E-02      0.2120288602E-01
          0                 2           2             1    1     1       0.2004830295E-02       1    3    1         0.1264714851E-03      0.2059287129E-02
          0                 3           2             1    1     1      -0.1728770929E-03       1    3    1        -0.1138266249E-04      0.1859584494E-03
          0                 4           1             1    1     1       0.1327898718E-04       1    5    1         0.9117489270E-06      0.1529106187E-04
          0                 5           1             1    1     1      -0.8956291650E-06       1    5    1        -0.6409508302E-07      0.1116854022E-05

    ------------------------------------------------
       NWT REQUIRED            5 OUTER ITERATIONS 
       AND A TOTAL OF          8 INNER ITERATIONS.
    ------------------------------------------------

 NO OUTPUT CONTROL FOR STRESS PERIOD   37   TIME STEP   14
 
 WELLS WITH REDUCED PUMPING FOR STRESS PERIOD    37 TIME STEP    14
   LAY   ROW   COL         APPL.Q          ACT.Q        GW-HEAD       CELL-BOT
     1     3    50  -0.680014E+00  -0.348107E+00   0.568895E-03   0.000000E+00
     1     5    55  -0.680014E+00  -0.261996E+00   0.469430E-03   0.000000E+00
 
 
 SOLVING FOR HEAD 
                                                   Max.-Head-Change                         Max.-Flux-Residual
  Residual-Control   Outer-Iter.   Inner-Iter.     Column Row Layer    Maximum-Head-Change  Column Row Layer    Maximum-Flux-Residual          L2-NORM 
          0                 1           2             1    1     1      -0.2302138402E-01       1    3    1        -0.1263952581E-02      0.2119599872E-01
          0                 2           2             1    1     1       0.2200143449E-02       1    3    1         0.1263925198E-03      0.2058466106E-02
          0                 3           2             1    1     1      -0.1893296809E-03       1    3    1        -0.1137557756E-04      0.1859023352E-03
          0                 4           1             1    1     1       0.1450859831E-04       1    3    1         0.9111811288E-06      0.1529996496E-04
          0                 5           1             1    1     1      -0.9756835153E-06       1    3    1        -0.6405517183E-07      0.1119201956E-05

    ------------------------------------------------
       NWT REQUIRED            5 OUTER ITERATIONS 
       AND A TOTAL OF          8 INNER ITERATIONS.
    ------------------------------------------------

 NO OUTPUT CONTROL FOR STRESS PERIOD   37   TIME STEP   15
 
 WELLS WITH REDUCED PUMPING FOR STRESS PERIOD    37 TIME STEP    15
   LAY   ROW   COL         APPL.Q          ACT.Q        GW-HEAD       CELL-BOT
     1     3    50  -0.680014E+00  -0.347881E+00   0.568646E-03   0.000000E+00
     1     5    55  -0.680014E+00  -0.261814E+00   0.469226E-03   0.000000E+00
 
 
 SOLVING FOR HEAD 
                                                   Max.-Head-Change                         Max.-Flux-Residual
  Residual-Control   Outer-Iter.   Inner-Iter.     Column Row Layer    Maximum-Head-Change  Column Row Layer    Maximum-Flux-Residual          L2-NORM 
          0                 1           2             1    1     1      -0.2530755188E-01       1    3    1        -0.1263285365E-02      0.2118874351E-01
          0                 2           2             1    1     1       0.2414389507E-02       1    3    1         0.1263255722E-03      0.2057692157E-02
          0                 3           2             1    1     1      -0.2073445088E-03       1    3    1        -0.1136957647E-04      0.1858566805E-03
          0                 4           1             1    1     1       0.1585163650E-04       1    3    1         0.9107001091E-06      0.1530952116E-04
          0                 5           1             1    1     1      -0.1062673552E-05       1    5    1        -0.6402136421E-07      0.1121423498E-05
          0                 6           1             1    1     1       0.6144797865E-07       1    4    1        -0.4975888146E-08      0.7123962813E-07

    ------------------------------------------------
       NWT REQUIRED            6 OUTER ITERATIONS 
       AND A TOTAL OF          9 INNER ITERATIONS.
    ------------------------------------------------

 NO OUTPUT CONTROL FOR STRESS PERIOD   37   TIME STEP   16
 
 WELLS WITH REDUCED PUMPING FOR STRESS PERIOD    37 TIME STEP    16
   LAY   ROW   COL         APPL.Q          ACT.Q        GW-HEAD       CELL-BOT
     1     3    50  -0.680014E+00  -0.347628E+00   0.568368E-03   0.000000E+00
     1     5    55  -0.680014E+00  -0.261614E+00   0.469003E-03   0.000000E+00
 
 
 SOLVING FOR HEAD 
                                                   Max.-Head-Change                         Max.-Flux-Residual
  Residual-Control   Outer-Iter.   Inner-Iter.     Column Row Layer    Maximum-Head-Change  Column Row Layer    Maximum-Flux-Residual          L2-NORM 
          0                 1           2             1    1     1      -0.2781937568E-01       1    5    1        -0.1262632972E-02      0.2117893793E-01
          0                 2           2             1    1     1       0.2649492896E-02       1    7    1         0.1262607543E-03      0.2056780335E-02
          0                 3           2             1    1     1      -0.2270808985E-03       1    5    1        -0.1136370815E-04      0.1857902394E-03
          0                 4           1             1    1     1       0.1731960324E-04       1    5    1         0.9102296978E-06      0.1531603643E-04
          0                 5           1             1    1     1      -0.1157208952E-05       1    5    1        -0.6398828845E-07      0.1123161519E-05
          0                 6           1             1    1     1       0.6666036722E-07       2    4    1        -0.5065555087E-08      0.7148301627E-07

    ------------------------------------------------
       NWT REQUIRED            6 OUTER ITERATIONS 
       AND A TOTAL OF          9 INNER ITERATIONS.
    ------------------------------------------------

 NO OUTPUT CONTROL FOR STRESS PERIOD   37   TIME STEP   17
 
 WELLS WITH REDUCED PUMPING FOR STRESS PERIOD    37 TIME STEP    17
   LAY   ROW   COL         APPL.Q          ACT.Q        GW-HEAD       CELL-BOT
     1     3    50  -0.680029E+00  -0.347358E+00   0.568063E-03   0.000000E+00
     1     5    55  -0.680029E+00  -0.261385E+00   0.468741E-03   0.000000E+00
 
 
 SOLVING FOR HEAD 
                                                   Max.-Head-Change                         Max.-Flux-Residual
  Residual-Control   Outer-Iter.   Inner-Iter.     Column Row Layer    Maximum-Head-Change  Column Row Layer    Maximum-Flux-Residual          L2-NORM 
          0                 1           2             1    1     1      -0.3057913793E-01       1    7    1        -0.1261953327E-02      0.2116735504E-01
          0                 2           2             1    1     1       0.2907517905E-02       1    7    1         0.1261934433E-03      0.2055722553E-02
          0                 3           2             1    1     1      -0.2487095223E-03       1    7    1        -0.1135760751E-04      0.1857141835E-03
          0                 4           1             1    1     1       0.1892476000E-04       1    7    1         0.9097418117E-06      0.1532146840E-04
          0                 5           1             1    1     1      -0.1259892503E-05       1    1    1        -0.6395399410E-07      0.1124531619E-05
          0                 6           1             1    1     1       0.7227429584E-07       2    4    1        -0.5149598081E-08      0.7168279668E-07

    ------------------------------------------------
       NWT REQUIRED            6 OUTER ITERATIONS 
       AND A TOTAL OF          9 INNER ITERATIONS.
    ------------------------------------------------

 NO OUTPUT CONTROL FOR STRESS PERIOD   37   TIME STEP   18
 
 WELLS WITH REDUCED PUMPING FOR STRESS PERIOD    37 TIME STEP    18
   LAY   ROW   COL         APPL.Q          ACT.Q        GW-HEAD       CELL-BOT
     1     3    50  -0.680022E+00  -0.347042E+00   0.567720E-03   0.000000E+00
     1     5    55  -0.680022E+00  -0.261125E+00   0.468455E-03   0.000000E+00
 
 
 SOLVING FOR HEAD 
                                                   Max.-Head-Change                         Max.-Flux-Residual
  Residual-Control   Outer-Iter.   Inner-Iter.     Column Row Layer    Maximum-Head-Change  Column Row Layer    Maximum-Flux-Residual          L2-NORM 
          0                 1           2             1    1     1      -0.3362038163E-01       1    7    1        -0.1261220289E-02      0.2115894305E-01
          0                 2           2             2    1     1       0.3193528739E-02       1    7    1         0.1261200128E-03      0.2054735409E-02
          0                 3           2             2    1     1      -0.2728420872E-03       1    7    1        -0.1135102304E-04      0.1855708532E-03
          0                 4           1             3    1     1       0.2072888488E-04       1    1    1         0.9092140374E-06      0.1531306386E-04
          0                 5           1             4    1     1      -0.1375686865E-05       1    7    1        -0.6391689311E-07      0.1123996024E-05
          0                 6           1             4    1     1       0.7858954920E-07       1    4    1        -0.5232553946E-08      0.7171104441E-07

    ------------------------------------------------
       NWT REQUIRED            6 OUTER ITERATIONS 
       AND A TOTAL OF          9 INNER ITERATIONS.
    ------------------------------------------------

 NO OUTPUT CONTROL FOR STRESS PERIOD   37   TIME STEP   19
 
 WELLS WITH REDUCED PUMPING FOR STRESS PERIOD    37 TIME STEP    19
   LAY   ROW   COL         APPL.Q          ACT.Q        GW-HEAD       CELL-BOT
     1     3    50  -0.679985E+00  -0.346718E+00   0.567386E-03   0.000000E+00
     1     5    55  -0.679985E+00  -0.260857E+00   0.468171E-03   0.000000E+00
 
 
 SOLVING FOR HEAD 
                                                   Max.-Head-Change                         Max.-Flux-Residual
  Residual-Control   Outer-Iter.   Inner-Iter.     Column Row Layer    Maximum-Head-Change  Column Row Layer    Maximum-Flux-Residual          L2-NORM 
          0                 1           2             1    1     1      -0.3702738315E-01       2    3    1        -0.1260879976E-02      0.2115414416E-01
          0                 2           2             1    1     1       0.3512960420E-02       2    3    1         0.1260846379E-03      0.2054109280E-02
          0                 3           2             1    1     1      -0.2996389950E-03       3    5    1        -0.1134793333E-04      0.1854873284E-03
          0                 4           1             1    1     1       0.2271217191E-04       3    5    1         0.9089648962E-06      0.1531258824E-04
          0                 5           1             1    1     1      -0.1500352607E-05       3    5    1        -0.6389939600E-07      0.1123859001E-05
          0                 6           1             1    1     1       0.8526794353E-07       7    4    1        -0.5143665049E-08      0.7174696354E-07

    ------------------------------------------------
       NWT REQUIRED            6 OUTER ITERATIONS 
       AND A TOTAL OF          9 INNER ITERATIONS.
    ------------------------------------------------

 NO OUTPUT CONTROL FOR STRESS PERIOD   37   TIME STEP   20
 
 WELLS WITH REDUCED PUMPING FOR STRESS PERIOD    37 TIME STEP    20
   LAY   ROW   COL         APPL.Q          ACT.Q        GW-HEAD       CELL-BOT
     1     3    50  -0.679980E+00  -0.346373E+00   0.567009E-03   0.000000E+00
     1     5    55  -0.679980E+00  -0.260569E+00   0.467852E-03   0.000000E+00
 
 
 SOLVING FOR HEAD 
                                                   Max.-Head-Change                         Max.-Flux-Residual
  Residual-Control   Outer-Iter.   Inner-Iter.     Column Row Layer    Maximum-Head-Change  Column Row Layer    Maximum-Flux-Residual          L2-NORM 
          0                 1           2             1    1     1      -0.4072915563E-01       1    5    1        -0.1264185825E-02      0.2114378368E-01
          0                 2           2             1    1     1       0.3859030910E-02       1    3    1         0.1264140449E-03      0.2053437897E-02
          0                 3           2             1    1     1      -0.3286248450E-03       1    5    1        -0.1137769446E-04      0.1854448309E-03
          0                 4           1             1    1     1       0.2485659636E-04       1    3    1         0.9113481703E-06      0.1531788646E-04
          0                 5           1             1    1     1      -0.1634075778E-05      30    4    1         0.6492253668E-07      0.1123701881E-05
          0                 6           1             1    1     1       0.9233666137E-07       2    4    1        -0.5240185175E-08      0.7174522802E-07

    ------------------------------------------------
       NWT REQUIRED            6 OUTER ITERATIONS 
       AND A TOTAL OF          9 INNER ITERATIONS.
    ------------------------------------------------

 NO OUTPUT CONTROL FOR STRESS PERIOD   37   TIME STEP   21
 
 WELLS WITH REDUCED PUMPING FOR STRESS PERIOD    37 TIME STEP    21
   LAY   ROW   COL         APPL.Q          ACT.Q        GW-HEAD       CELL-BOT
     1     3    50  -0.680000E+00  -0.345998E+00   0.566587E-03   0.000000E+00
     1     5    55  -0.680000E+00  -0.260257E+00   0.467496E-03   0.000000E+00
 
 
 SOLVING FOR HEAD 
                                                   Max.-Head-Change                         Max.-Flux-Residual
  Residual-Control   Outer-Iter.   Inner-Iter.     Column Row Layer    Maximum-Head-Change  Column Row Layer    Maximum-Flux-Residual          L2-NORM 
          0                 1           2             1    1     1      -0.4476746911E-01       1    5    1        -0.1263135525E-02      0.2112789795E-01
          0                 2           2             1    1     1       0.4235997792E-02       1    3    1         0.1263084806E-03      0.2051996385E-02
          0                 3           2             1    1     1      -0.3601396712E-03       1    5    1        -0.1136823458E-04      0.1853285139E-03
          0                 4           1             1    1     1       0.2718088864E-04       1    3    1         0.9105898719E-06      0.1531692028E-04
          0                 5           1             1    1     1      -0.1776663457E-05       1    3    1        -0.6401362640E-07      0.1122429340E-05
          0                 6           1             1    1     1       0.9971233294E-07       7    4    1        -0.5314348073E-08      0.7162653060E-07

    ------------------------------------------------
       NWT REQUIRED            6 OUTER ITERATIONS 
       AND A TOTAL OF          9 INNER ITERATIONS.
    ------------------------------------------------

 NO OUTPUT CONTROL FOR STRESS PERIOD   37   TIME STEP   22
 
 WELLS WITH REDUCED PUMPING FOR STRESS PERIOD    37 TIME STEP    22
   LAY   ROW   COL         APPL.Q          ACT.Q        GW-HEAD       CELL-BOT
     1     3    50  -0.679995E+00  -0.345591E+00   0.566142E-03   0.000000E+00
     1     5    55  -0.679995E+00  -0.259919E+00   0.467121E-03   0.000000E+00
 
 
 SOLVING FOR HEAD 
                                                   Max.-Head-Change                         Max.-Flux-Residual
  Residual-Control   Outer-Iter.   Inner-Iter.     Column Row Layer    Maximum-Head-Change  Column Row Layer    Maximum-Flux-Residual          L2-NORM 
          0                 1           2             1    1     1      -0.4919442461E-01       1    5    1        -0.1261770760E-02      0.2110785795E-01
          0                 2           2             1    1     1       0.4648893498E-02       1    3    1         0.1261716649E-03      0.2050175771E-02
          0                 3           2             1    1     1      -0.3946197943E-03       1    5    1        -0.1135596445E-04      0.1851660341E-03
          0                 4           1             1    1     1       0.2971766319E-04       1    3    1         0.9096064133E-06      0.1531023526E-04
          0                 5           1             3    1     1      -0.1929627830E-05      30    4    1         0.6502499694E-07      0.1119819840E-05
          0                 6           1             1    1     1       0.1074045916E-06       7    4    1        -0.5390923263E-08      0.7136435830E-07

    ------------------------------------------------
       NWT REQUIRED            6 OUTER ITERATIONS 
       AND A TOTAL OF          9 INNER ITERATIONS.
    ------------------------------------------------

 NO OUTPUT CONTROL FOR STRESS PERIOD   37   TIME STEP   23
 
 WELLS WITH REDUCED PUMPING FOR STRESS PERIOD    37 TIME STEP    23
   LAY   ROW   COL         APPL.Q          ACT.Q        GW-HEAD       CELL-BOT
     1     3    50  -0.680012E+00  -0.345146E+00   0.565644E-03   0.000000E+00
     1     5    55  -0.680012E+00  -0.259551E+00   0.466702E-03   0.000000E+00
 
 
 SOLVING FOR HEAD 
                                                   Max.-Head-Change                         Max.-Flux-Residual
  Residual-Control   Outer-Iter.   Inner-Iter.     Column Row Layer    Maximum-Head-Change  Column Row Layer    Maximum-Flux-Residual          L2-NORM 
          0                 1           2             1    1     1      -0.5405341291E-01       1    5    1        -0.1260526130E-02      0.2108573681E-01
          0                 2           2             1    1     1       0.5101816713E-02       1    1    1         0.1260473888E-03      0.2047925287E-02
          0                 3           2             1    1     1      -0.4324122606E-03       1    5    1        -0.1134476886E-04      0.1849478375E-03
          0                 4           1             1    1     1       0.3249161253E-04       1    5    1         0.9087089694E-06      0.1529792805E-04
          0                 5           1             3    1     1      -0.2093502851E-05      30    4    1         0.6607627157E-07      0.1115775966E-05
          0                 6           1             3    1     1       0.1153609542E-06       7    4    1        -0.5469054543E-08      0.7094940266E-07

    ------------------------------------------------
       NWT REQUIRED            6 OUTER ITERATIONS 
       AND A TOTAL OF          9 INNER ITERATIONS.
    ------------------------------------------------

 NO OUTPUT CONTROL FOR STRESS PERIOD   37   TIME STEP   24
 
 WELLS WITH REDUCED PUMPING FOR STRESS PERIOD    37 TIME STEP    24
   LAY   ROW   COL         APPL.Q          ACT.Q        GW-HEAD       CELL-BOT
     1     3    50  -0.679997E+00  -0.344662E+00   0.565121E-03   0.000000E+00
     1     5    55  -0.679997E+00  -0.259149E+00   0.466261E-03   0.000000E+00
 
 
 SOLVING FOR HEAD 
                                                   Max.-Head-Change                         Max.-Flux-Residual
  Residual-Control   Outer-Iter.   Inner-Iter.     Column Row Layer    Maximum-Head-Change  Column Row Layer    Maximum-Flux-Residual          L2-NORM 
          0                 1           3             1    1     1      -0.5938721161E-01       1    7    1        -0.1259238788E-02      0.2106123001E-01
          0                 2           2             1    1     1       0.5598928364E-02       1    7    1         0.1259193189E-03      0.2045554817E-02
          0                 3           2             1    1     1      -0.4738638959E-03       1    7    1        -0.1133319729E-04      0.1847178989E-03
          0                 4           1             1    1     1       0.3552800497E-04       1    1    1         0.9077828089E-06      0.1528333132E-04
          0                 5           1             3    1     1      -0.2268612961E-05      30    4    1         0.6688516230E-07      0.1110360621E-05
          0                 6           1             3    1     1       0.1235892916E-06       9    4    1        -0.5514493751E-08      0.7037965754E-07

    ------------------------------------------------
       NWT REQUIRED            6 OUTER ITERATIONS 
       AND A TOTAL OF         10 INNER ITERATIONS.
    ------------------------------------------------

 NO OUTPUT CONTROL FOR STRESS PERIOD   37   TIME STEP   25
 
 WELLS WITH REDUCED PUMPING FOR STRESS PERIOD    37 TIME STEP    25
   LAY   ROW   COL         APPL.Q          ACT.Q        GW-HEAD       CELL-BOT
     1     3    50  -0.680007E+00  -0.344133E+00   0.564535E-03   0.000000E+00
     1     5    55  -0.680007E+00  -0.258713E+00   0.465768E-03   0.000000E+00
 
 
 SOLVING FOR HEAD 
                                                   Max.-Head-Change                         Max.-Flux-Residual
  Residual-Control   Outer-Iter.   Inner-Iter.     Column Row Layer    Maximum-Head-Change  Column Row Layer    Maximum-Flux-Residual          L2-NORM 
          0                 1           3             1    1     1      -0.6524094976E-01       1    7    1        -0.1257845154E-02      0.2103300390E-01
          0                 2           2             1    1     1       0.6144178089E-02       1    7    1         0.1257793729E-03      0.2042841540E-02
          0                 3           2             1    1     1      -0.5192996913E-03       1    7    1        -0.1132065753E-04      0.1844630365E-03
          0                 4           1             1    1     1       0.3884526742E-04       1    1    1         0.9067775721E-06      0.1526669389E-04
          0                 5           1             3    1     1      -0.2450864776E-05       9    4    1         0.6681252174E-07      0.1103716271E-05
          0                 6           1             1    1     1       0.1315894449E-06       9    4    1        -0.5619263277E-08      0.6967886335E-07

    ------------------------------------------------
       NWT REQUIRED            6 OUTER ITERATIONS 
       AND A TOTAL OF         10 INNER ITERATIONS.
    ------------------------------------------------

 NO OUTPUT CONTROL FOR STRESS PERIOD   37   TIME STEP   26
 
 WELLS WITH REDUCED PUMPING FOR STRESS PERIOD    37 TIME STEP    26
   LAY   ROW   COL         APPL.Q          ACT.Q        GW-HEAD       CELL-BOT
     1     3    50  -0.680004E+00  -0.343557E+00   0.563903E-03   0.000000E+00
     1     5    55  -0.680004E+00  -0.258237E+00   0.465238E-03   0.000000E+00
 
 
 SOLVING FOR HEAD 
                                                   Max.-Head-Change                         Max.-Flux-Residual
  Residual-Control   Outer-Iter.   Inner-Iter.     Column Row Layer    Maximum-Head-Change  Column Row Layer    Maximum-Flux-Residual          L2-NORM 
          0                 1           3             1    1     1      -0.7166397221E-01       1    7    1        -0.1256324858E-02      0.2100112169E-01
          0                 2           2             1    1     1       0.6742251755E-02       1    7    1         0.1256266915E-03      0.2039745877E-02
          0                 3           2             1    1     1      -0.5691045853E-03       1    7    1        -0.1130697731E-04      0.1841586622E-03
          0                 4           1             1    1     1       0.4246942032E-04       1    7    1         0.9056809134E-06      0.1524413860E-04
          0                 5           1             3    1     1      -0.2640672369E-05       9    4    1         0.6827818311E-07      0.1094742248E-05
          0                 6           1             1    1     1       0.1392480092E-06       9    4    1        -0.5728299612E-08      0.6874970731E-07

    ------------------------------------------------
       NWT REQUIRED            6 OUTER ITERATIONS 
       AND A TOTAL OF         10 INNER ITERATIONS.
    ------------------------------------------------

 NO OUTPUT CONTROL FOR STRESS PERIOD   37   TIME STEP   27
 
 WELLS WITH REDUCED PUMPING FOR STRESS PERIOD    37 TIME STEP    27
   LAY   ROW   COL         APPL.Q          ACT.Q        GW-HEAD       CELL-BOT
     1     3    50  -0.680001E+00  -0.342928E+00   0.563214E-03   0.000000E+00
     1     5    55  -0.680001E+00  -0.257719E+00   0.464661E-03   0.000000E+00
 
 
 SOLVING FOR HEAD 
                                                   Max.-Head-Change                         Max.-Flux-Residual
  Residual-Control   Outer-Iter.   Inner-Iter.     Column Row Layer    Maximum-Head-Change  Column Row Layer    Maximum-Flux-Residual          L2-NORM 
          0                 1           3             1    1     1      -0.7870985564E-01       1    7    1        -0.1254663899E-02      0.2096486466E-01
          0                 2           2             1    1     1       0.7398127513E-02       1    7    1         0.1254598664E-03      0.2036244585E-02
          0                 3           2             1    1     1      -0.6236862301E-03       1    7    1        -0.1129203040E-04      0.1838301650E-03
          0                 4           1             1    1     1       0.4642578718E-04       1    7    1         0.9044827025E-06      0.1522034394E-04
          0                 5           1             3    1     1      -0.2835039114E-05       9    4    1         0.6996097923E-07      0.1083884114E-05
          0                 6           1             1    1     1       0.1462050246E-06       9    4    1        -0.5845180340E-08      0.6764521219E-07

    ------------------------------------------------
       NWT REQUIRED            6 OUTER ITERATIONS 
       AND A TOTAL OF         10 INNER ITERATIONS.
    ------------------------------------------------

 NO OUTPUT CONTROL FOR STRESS PERIOD   37   TIME STEP   28
 
 WELLS WITH REDUCED PUMPING FOR STRESS PERIOD    37 TIME STEP    28
   LAY   ROW   COL         APPL.Q          ACT.Q        GW-HEAD       CELL-BOT
     1     3    50  -0.679988E+00  -0.342242E+00   0.562468E-03   0.000000E+00
     1     5    55  -0.679988E+00  -0.257157E+00   0.464038E-03   0.000000E+00
 
 
 SOLVING FOR HEAD 
                                                   Max.-Head-Change                         Max.-Flux-Residual
  Residual-Control   Outer-Iter.   Inner-Iter.     Column Row Layer    Maximum-Head-Change  Column Row Layer    Maximum-Flux-Residual          L2-NORM 
          0                 1           3             1    1     1      -0.8643685402E-01       1    7    1        -0.1252846858E-02      0.2092258655E-01
          0                 2           2             1    1     1       0.8117213642E-02       1    7    1         0.1252773460E-03      0.2032251215E-02
          0                 3           2             1    1     1      -0.6834829141E-03       1    7    1        -0.1127567776E-04      0.1834519460E-03
          0                 4           1             1    1     1       0.5073978299E-04       4    3    1         0.9033763142E-06      0.1519120049E-04
          0                 5           1             3    1     1      -0.3029038043E-05       9    4    1         0.7197733609E-07      0.1070617594E-05
          0                 6           1             1    1     1       0.1519768809E-06       9    4    1        -0.5976961148E-08      0.6636477875E-07

    ------------------------------------------------
       NWT REQUIRED            6 OUTER ITERATIONS 
       AND A TOTAL OF         10 INNER ITERATIONS.
    ------------------------------------------------

 NO OUTPUT CONTROL FOR STRESS PERIOD   37   TIME STEP   29
 
 WELLS WITH REDUCED PUMPING FOR STRESS PERIOD    37 TIME STEP    29
   LAY   ROW   COL         APPL.Q          ACT.Q        GW-HEAD       CELL-BOT
     1     3    50  -0.680007E+00  -0.341494E+00   0.561637E-03   0.000000E+00
     1     5    55  -0.680007E+00  -0.256546E+00   0.463346E-03   0.000000E+00
 
 
 SOLVING FOR HEAD 
                                                   Max.-Head-Change                         Max.-Flux-Residual
  Residual-Control   Outer-Iter.   Inner-Iter.     Column Row Layer    Maximum-Head-Change  Column Row Layer    Maximum-Flux-Residual          L2-NORM 
          0                 1           3             1    1     1      -0.9490821583E-01       1    7    1        -0.1250857237E-02      0.2087599266E-01
          0                 2           2             1    1     1       0.8905376298E-02       1    7    1         0.1250774699E-03      0.2027615463E-02
          0                 3           2             1    1     1      -0.7489645848E-03       3    2    1        -0.1125803121E-04      0.1829973782E-03
          0                 4           1             1    1     1       0.5543749316E-04       4    3    1         0.9030217143E-06      0.1515398663E-04
          0                 5           1             3    1     1      -0.3216751958E-05       9    4    1         0.7439927785E-07      0.1054885292E-05
          0                 6           1             1    1     1       0.1560232127E-06       9    4    1        -0.6124079022E-08      0.6496771376E-07

    ------------------------------------------------
       NWT REQUIRED            6 OUTER ITERATIONS 
       AND A TOTAL OF         10 INNER ITERATIONS.
    ------------------------------------------------

 NO OUTPUT CONTROL FOR STRESS PERIOD   37   TIME STEP   30
 
 WELLS WITH REDUCED PUMPING FOR STRESS PERIOD    37 TIME STEP    30
   LAY   ROW   COL         APPL.Q          ACT.Q        GW-HEAD       CELL-BOT
     1     3    50  -0.680056E+00  -0.340679E+00   0.560715E-03   0.000000E+00
     1     5    55  -0.680056E+00  -0.255882E+00   0.462582E-03   0.000000E+00
 



 STREAM LISTING     PERIOD     37   STEP       30

 LAYER ROW COL. STREAM  RCH.   FLOW INTO    STREAM     FLOW OUT OF   OVRLND.    DIRECT     STREAM      STREAM      STREAM     STREAM  STREAMBED   FLOW TO   CHNG. UNSAT. 
                SEG.NO.  NO.   STRM. RCH.    LOSS       STRM. RCH.   RUNOFF     PRECIP       ET         HEAD        DEPTH      WIDTH  CONDCTNC.   WAT. TAB.

   1    4    1     1     1    6.2000E-02  1.9641E-04   6.1804E-02  0.000E+00  0.000E+00  0.000E+00  1.40090E+02  2.401E-01  1.738E+00  2.654E-04  1.698E-04  2.662E-05
   1    4    2     1     2    6.1804E-02  1.9610E-04   6.1607E-02  0.000E+00  0.000E+00  0.000E+00  1.39790E+02  2.399E-01  1.736E+00  2.651E-04  1.695E-04  2.664E-05
   1    4    3     1     3    6.1607E-02  1.9579E-04   6.1412E-02  0.000E+00  0.000E+00  0.000E+00  1.39490E+02  2.396E-01  1.734E+00  2.647E-04  1.691E-04  2.664E-05
   1    4    4     1     4    6.1412E-02  1.9548E-04   6.1216E-02  0.000E+00  0.000E+00  0.000E+00  1.39189E+02  2.393E-01  1.732E+00  2.644E-04  1.688E-04  2.663E-05
   1    4    5     1     5    6.1216E-02  1.9518E-04   6.1021E-02  0.000E+00  0.000E+00  0.000E+00  1.38889E+02  2.390E-01  1.730E+00  2.641E-04  1.686E-04  2.661E-05
   1    4    6     1     6    6.1021E-02  1.9487E-04   6.0826E-02  0.000E+00  0.000E+00  0.000E+00  1.38589E+02  2.387E-01  1.728E+00  2.638E-04  1.683E-04  2.657E-05
   1    4    7     1     7    6.0826E-02  1.9456E-04   6.0632E-02  0.000E+00  0.000E+00  0.000E+00  1.38288E+02  2.384E-01  1.726E+00  2.635E-04  1.680E-04  2.651E-05
   1    4    8     1     8    6.0632E-02  1.9425E-04   6.0437E-02  0.000E+00  0.000E+00  0.000E+00  1.37988E+02  2.381E-01  1.724E+00  2.632E-04  1.678E-04  2.644E-05
   1    4    9     1     9    6.0437E-02  1.9394E-04   6.0243E-02  0.000E+00  0.000E+00  0.000E+00  1.37688E+02  2.379E-01  1.722E+00  2.628E-04  1.676E-04  2.635E-05
   1    4   10     1    10    6.0243E-02  1.9363E-04   6.0050E-02  0.000E+00  0.000E+00  0.000E+00  1.37388E+02  2.376E-01  1.720E+00  2.625E-04  1.674E-04  2.625E-05
   1    4   11     1    11    6.0050E-02  1.9332E-04   5.9856E-02  0.000E+00  0.000E+00  0.000E+00  1.37087E+02  2.373E-01  1.717E+00  2.622E-04  1.672E-04  2.612E-05
   1    4   12     1    12    5.9856E-02  1.9301E-04   5.9663E-02  0.000E+00  0.000E+00  0.000E+00  1.36787E+02  2.370E-01  1.715E+00  2.619E-04  1.670E-04  2.599E-05
   1    4   13     1    13    5.9663E-02  1.9270E-04   5.9471E-02  0.000E+00  0.000E+00  0.000E+00  1.36487E+02  2.367E-01  1.713E+00  2.616E-04  1.669E-04  2.584E-05
   1    4   14     1    14    5.9471E-02  1.9239E-04   5.9278E-02  0.000E+00  0.000E+00  0.000E+00  1.36186E+02  2.364E-01  1.711E+00  2.613E-04  1.667E-04  2.567E-05
   1    4   15     1    15    5.9278E-02  1.9208E-04   5.9086E-02  0.000E+00  0.000E+00  0.000E+00  1.35886E+02  2.361E-01  1.709E+00  2.609E-04  1.666E-04  2.548E-05
   1    4   16     1    16    5.9086E-02  1.9178E-04   5.8895E-02  0.000E+00  0.000E+00  0.000E+00  1.35586E+02  2.358E-01  1.707E+00  2.606E-04  1.665E-04  2.527E-05
   1    4   17     1    17    5.8895E-02  1.9147E-04   5.8703E-02  0.000E+00  0.000E+00  0.000E+00  1.35286E+02  2.356E-01  1.705E+00  2.603E-04  1.664E-04  2.505E-05
   1    4   18     1    18    5.8703E-02  1.9116E-04   5.8512E-02  0.000E+00  0.000E+00  0.000E+00  1.34985E+02  2.353E-01  1.703E+00  2.600E-04  1.663E-04  2.480E-05
   1    4   19     1    19    5.8512E-02  1.9085E-04   5.8321E-02  0.000E+00  0.000E+00  0.000E+00  1.34685E+02  2.350E-01  1.701E+00  2.597E-04  1.663E-04  2.454E-05
   1    4   20     1    20    5.8321E-02  1.9054E-04   5.8130E-02  0.000E+00  0.000E+00  0.000E+00  1.34385E+02  2.347E-01  1.699E+00  2.593E-04  1.663E-04  2.426E-05
   1    4   21     1    21    5.8130E-02  1.9023E-04   5.7940E-02  0.000E+00  0.000E+00  0.000E+00  1.34084E+02  2.344E-01  1.697E+00  2.590E-04  1.663E-04  2.395E-05
   1    4   22     1    22    5.7940E-02  1.8992E-04   5.7750E-02  0.000E+00  0.000E+00  0.000E+00  1.33784E+02  2.341E-01  1.695E+00  2.587E-04  1.663E-04  2.362E-05
   1    4   23     1    23    5.7750E-02  1.8962E-04   5.7561E-02  0.000E+00  0.000E+00  0.000E+00  1.33484E+02  2.338E-01  1.693E+00  2.584E-04  1.663E-04  2.327E-05
   1    4   24     1    24    5.7561E-02  1.8931E-04   5.7371E-02  0.000E+00  0.000E+00  0.000E+00  1.33184E+02  2.335E-01  1.690E+00  2.581E-04  1.664E-04  2.289E-05
   1    4   25     1    25    5.7371E-02  1.8900E-04   5.7182E-02  0.000E+00  0.000E+00  0.000E+00  1.32883E+02  2.333E-01  1.688E+00  2.578E-04  1.665E-04  2.249E-05
   1    4   26     1    26    5.7182E-02  1.8869E-04   5.6994E-02  0.000E+00  0.000E+00  0.000E+00  1.32583E+02  2.330E-01  1.686E+00  2.574E-04  1.666E-04  2.206E-05
   1    4   27     1    27    5.6994E-02  1.8838E-04   5.6805E-02  0.000E+00  0.000E+00  0.000E+00  1.32283E+02  2.327E-01  1.684E+00  2.571E-04  1.668E-04  2.161E-05
   1    4   28     1    28    5.6805E-02  1.8808E-04   5.6617E-02  0.000E+00  0.000E+00  0.000E+00  1.31982E+02  2.324E-01  1.682E+00  2.568E-04  1.669E-04  2.112E-05
   1    4   29     1    29    5.6617E-02  1.8777E-04   5.6429E-02  0.000E+00  0.000E+00  0.000E+00  1.31682E+02  2.321E-01  1.680E+00  2.565E-04  1.671E-04  2.063E-05
   1    4   30     1    30    5.6429E-02  1.8746E-04   5.6242E-02  0.000E+00  0.000E+00  0.000E+00  1.31382E+02  2.318E-01  1.678E+00  2.562E-04  1.679E-04  1.958E-05
   1    4   31     1    31    5.6242E-02  1.8715E-04   5.6055E-02  0.000E+00  0.000E+00  0.000E+00  1.31082E+02  2.315E-01  1.676E+00  2.558E-04  1.852E-04  1.971E-06
   1    4   32     1    32    5.6055E-02  1.8684E-04   5.5868E-02  0.000E+00  0.000E+00  0.000E+00  1.30781E+02  2.312E-01  1.674E+00  2.555E-04  1.956E-04 -8.728E-06
   1    4   33     1    33    5.5868E-02  1.8654E-04   5.5681E-02  0.000E+00  0.000E+00  0.000E+00  1.30481E+02  2.309E-01  1.672E+00  2.552E-04  1.961E-04 -9.599E-06
   1    4   34     1    34    5.5681E-02  1.8623E-04   5.5495E-02  0.000E+00  0.000E+00  0.000E+00  1.30181E+02  2.307E-01  1.669E+00  2.549E-04  1.967E-04 -1.048E-05
   1    4   35     1    35    5.5495E-02  1.8592E-04   5.5309E-02  0.000E+00  0.000E+00  0.000E+00  1.29880E+02  2.304E-01  1.667E+00  2.546E-04  2.034E-04 -1.754E-05
   1    4   36     1    36    5.5309E-02  1.8561E-04   5.5124E-02  0.000E+00  0.000E+00  0.000E+00  1.29580E+02  2.301E-01  1.665E+00  2.542E-04  2.247E-04 -3.909E-05
   1    4   37     1    37    5.5124E-02  1.8530E-04   5.4938E-02  0.000E+00  0.000E+00  0.000E+00  1.29280E+02  2.298E-01  1.663E+00  2.539E-04  2.261E-04 -4.083E-05
   1    4   38     1    38    5.4938E-02  1.8500E-04   5.4753E-02  0.000E+00  0.000E+00  0.000E+00  1.28979E+02  2.295E-01  1.661E+00  2.536E-04  2.270E-04 -4.201E-05
   1    4   39     1    39    5.4753E-02  1.8469E-04   5.4569E-02  0.000E+00  0.000E+00  0.000E+00  1.28679E+02  2.292E-01  1.659E+00  2.533E-04  2.457E-04 -6.101E-05
   1    4   40     1    40    5.4569E-02  1.8438E-04   5.4384E-02  0.000E+00  0.000E+00  0.000E+00  1.28379E+02  2.289E-01  1.657E+00  2.530E-04  2.557E-04 -7.135E-05
   1    4   41     1    41    5.4384E-02  1.8407E-04   5.4200E-02  0.000E+00  0.000E+00  0.000E+00  1.28079E+02  2.286E-01  1.655E+00  2.526E-04  2.596E-04 -7.551E-05
   1    4   42     1    42    5.4200E-02  1.8377E-04   5.4017E-02  0.000E+00  0.000E+00  0.000E+00  1.27778E+02  2.283E-01  1.653E+00  2.523E-04  3.063E-04 -1.225E-04
   1    4   43     1    43    5.4017E-02  1.8346E-04   5.3833E-02  0.000E+00  0.000E+00  0.000E+00  1.27478E+02  2.280E-01  1.651E+00  2.520E-04  3.096E-04 -1.262E-04
   1    4   44     1    44    5.3833E-02  1.8315E-04   5.3650E-02  0.000E+00  0.000E+00  0.000E+00  1.27178E+02  2.278E-01  1.648E+00  2.517E-04  3.150E-04 -1.319E-04
   1    4   45     1    45    5.3650E-02  1.8284E-04   5.3467E-02  0.000E+00  0.000E+00  0.000E+00  1.26877E+02  2.275E-01  1.646E+00  2.513E-04  3.292E-04 -1.463E-04
   1    4   46     1    46    5.3467E-02  1.8254E-04   5.3285E-02  0.000E+00  0.000E+00  0.000E+00  1.26577E+02  2.272E-01  1.644E+00  2.510E-04  3.481E-04 -1.656E-04
   1    4   47     1    47    5.3285E-02  1.8223E-04   5.3102E-02  0.000E+00  0.000E+00  0.000E+00  1.26277E+02  2.269E-01  1.642E+00  2.507E-04  3.710E-04 -1.888E-04
   1    4   48     1    48    5.3102E-02  1.8192E-04   5.2920E-02  0.000E+00  0.000E+00  0.000E+00  1.25977E+02  2.266E-01  1.640E+00  2.504E-04  4.167E-04 -2.348E-04
   1    4   49     1    49    5.2920E-02  1.8162E-04   5.2739E-02  0.000E+00  0.000E+00  0.000E+00  1.25676E+02  2.263E-01  1.638E+00  2.501E-04  4.219E-04 -2.404E-04
   1    4   50     1    50    5.2739E-02  1.8131E-04   5.2557E-02  0.000E+00  0.000E+00  0.000E+00  1.25376E+02  2.260E-01  1.636E+00  2.497E-04  4.298E-04 -2.486E-04
   1    4   51     1    51    5.2557E-02  1.8100E-04   5.2376E-02  0.000E+00  0.000E+00  0.000E+00  1.25076E+02  2.257E-01  1.634E+00  2.494E-04  4.272E-04 -2.463E-04
   1    4   52     1    52    5.2376E-02  1.8069E-04   5.2196E-02  0.000E+00  0.000E+00  0.000E+00  1.24775E+02  2.254E-01  1.632E+00  2.491E-04  4.259E-04 -2.453E-04
   1    4   53     1    53    5.2196E-02  1.8039E-04   5.2015E-02  0.000E+00  0.000E+00  0.000E+00  1.24475E+02  2.251E-01  1.629E+00  2.488E-04  4.257E-04 -2.454E-04
   1    4   54     1    54    5.2015E-02  1.8008E-04   5.1835E-02  0.000E+00  0.000E+00  0.000E+00  1.24175E+02  2.248E-01  1.627E+00  2.484E-04  4.266E-04 -2.465E-04
   1    4   55     1    55    5.1835E-02  1.7977E-04   5.1656E-02  0.000E+00  0.000E+00  0.000E+00  1.23875E+02  2.245E-01  1.625E+00  2.481E-04  4.289E-04 -2.492E-04
   1    4   56     1    56    5.1656E-02  1.7947E-04   5.1476E-02  0.000E+00  0.000E+00  0.000E+00  1.23574E+02  2.242E-01  1.623E+00  2.478E-04  4.213E-04 -2.418E-04
   1    4   57     1    57    5.1476E-02  1.7916E-04   5.1297E-02  0.000E+00  0.000E+00  0.000E+00  1.23274E+02  2.240E-01  1.621E+00  2.475E-04  4.161E-04 -2.370E-04
   1    4   58     1    58    5.1297E-02  1.7885E-04   5.1118E-02  0.000E+00  0.000E+00  0.000E+00  1.22974E+02  2.237E-01  1.619E+00  2.472E-04  4.074E-04 -2.286E-04
   1    4   59     1    59    5.1118E-02  1.7855E-04   5.0939E-02  0.000E+00  0.000E+00  0.000E+00  1.22673E+02  2.234E-01  1.617E+00  2.468E-04  3.569E-04 -1.784E-04
   1    4   60     1    60    5.0939E-02  1.7824E-04   5.0761E-02  0.000E+00  0.000E+00  0.000E+00  1.22373E+02  2.231E-01  1.615E+00  2.465E-04  3.371E-04 -1.589E-04
   1    4   61     1    61    5.0761E-02  1.7793E-04   5.0583E-02  0.000E+00  0.000E+00  0.000E+00  1.22073E+02  2.228E-01  1.613E+00  2.462E-04  3.167E-04 -1.387E-04
   1    4   62     1    62    5.0583E-02  1.7763E-04   5.0406E-02  0.000E+00  0.000E+00  0.000E+00  1.21772E+02  2.225E-01  1.610E+00  2.459E-04  3.070E-04 -1.294E-04
   1    4   63     1    63    5.0406E-02  1.7732E-04   5.0228E-02  0.000E+00  0.000E+00  0.000E+00  1.21472E+02  2.222E-01  1.608E+00  2.455E-04  3.044E-04 -1.271E-04
   1    4   64     1    64    5.0228E-02  1.7701E-04   5.0051E-02  0.000E+00  0.000E+00  0.000E+00  1.21172E+02  2.219E-01  1.606E+00  2.452E-04  2.999E-04 -1.229E-04
   1    4   65     1    65    5.0051E-02  1.7671E-04   4.9875E-02  0.000E+00  0.000E+00  0.000E+00  1.20872E+02  2.216E-01  1.604E+00  2.449E-04  2.631E-04 -8.643E-05
   1    4   66     1    66    4.9875E-02  1.7640E-04   4.9698E-02  0.000E+00  0.000E+00  0.000E+00  1.20571E+02  2.213E-01  1.602E+00  2.446E-04  2.529E-04 -7.647E-05
   1    4   67     1    67    4.9698E-02  1.7610E-04   4.9522E-02  0.000E+00  0.000E+00  0.000E+00  1.20271E+02  2.210E-01  1.600E+00  2.442E-04  2.427E-04 -6.657E-05
   1    4   68     1    68    4.9522E-02  1.7579E-04   4.9346E-02  0.000E+00  0.000E+00  0.000E+00  1.19971E+02  2.207E-01  1.598E+00  2.439E-04  2.239E-04 -4.814E-05
   1    4   69     1    69    4.9346E-02  1.7548E-04   4.9171E-02  0.000E+00  0.000E+00  0.000E+00  1.19670E+02  2.204E-01  1.596E+00  2.436E-04  2.233E-04 -4.782E-05
   1    4   70     1    70    4.9171E-02  1.7518E-04   4.8996E-02  0.000E+00  0.000E+00  0.000E+00  1.19370E+02  2.201E-01  1.593E+00  2.433E-04  2.227E-04 -4.754E-05
   1    4   71     1    71    4.8996E-02  1.7487E-04   4.8821E-02  0.000E+00  0.000E+00  0.000E+00  1.19070E+02  2.198E-01  1.591E+00  2.429E-04  2.025E-04 -2.768E-05
   1    4   72     1    72    4.8821E-02  1.7457E-04   4.8646E-02  0.000E+00  0.000E+00  0.000E+00  1.18770E+02  2.195E-01  1.589E+00  2.426E-04  1.940E-04 -1.949E-05
   1    4   73     1    73    4.8646E-02  1.7426E-04   4.8472E-02  0.000E+00  0.000E+00  0.000E+00  1.18469E+02  2.193E-01  1.587E+00  2.423E-04  1.938E-04 -1.957E-05
   1    4   74     1    74    4.8472E-02  1.7395E-04   4.8298E-02  0.000E+00  0.000E+00  0.000E+00  1.18169E+02  2.190E-01  1.585E+00  2.420E-04  1.936E-04 -1.971E-05
   1    4   75     1    75    4.8298E-02  1.7365E-04   4.8124E-02  0.000E+00  0.000E+00  0.000E+00  1.17869E+02  2.187E-01  1.583E+00  2.416E-04  1.851E-04 -1.149E-05
   1    4   76     1    76    4.8124E-02  1.7334E-04   4.7951E-02  0.000E+00  0.000E+00  0.000E+00  1.17568E+02  2.184E-01  1.581E+00  2.413E-04  1.658E-04  7.525E-06
   1    4   77     1    77    4.7951E-02  1.7304E-04   4.7778E-02  0.000E+00  0.000E+00  0.000E+00  1.17268E+02  2.181E-01  1.578E+00  2.410E-04  1.660E-04  7.066E-06
   1    4   78     1    78    4.7778E-02  1.7273E-04   4.7605E-02  0.000E+00  0.000E+00  0.000E+00  1.16968E+02  2.178E-01  1.576E+00  2.406E-04  1.662E-04  6.538E-06
   1    4   79     1    79    4.7605E-02  1.7242E-04   4.7433E-02  0.000E+00  0.000E+00  0.000E+00  1.16667E+02  2.175E-01  1.574E+00  2.403E-04  1.665E-04  5.941E-06
   1    4   80     1    80    4.7433E-02  1.7212E-04   4.7261E-02  0.000E+00  0.000E+00  0.000E+00  1.16367E+02  2.172E-01  1.572E+00  2.400E-04  1.668E-04  5.265E-06
   1    4   81     1    81    4.7261E-02  1.7181E-04   4.7089E-02  0.000E+00  0.000E+00  0.000E+00  1.16067E+02  2.169E-01  1.570E+00  2.397E-04  1.673E-04  4.506E-06
   1    4   82     1    82    4.7089E-02  1.7151E-04   4.6917E-02  0.000E+00  0.000E+00  0.000E+00  1.15767E+02  2.166E-01  1.568E+00  2.393E-04  1.678E-04  3.666E-06
   1    4   83     1    83    4.6917E-02  1.7120E-04   4.6746E-02  0.000E+00  0.000E+00  0.000E+00  1.15466E+02  2.163E-01  1.566E+00  2.390E-04  1.684E-04  2.744E-06
   1    4   84     1    84    4.6746E-02  1.7090E-04   4.6575E-02  0.000E+00  0.000E+00  0.000E+00  1.15166E+02  2.160E-01  1.563E+00  2.387E-04  1.691E-04  1.743E-06
   1    4   85     1    85    4.6575E-02  1.7059E-04   4.6405E-02  0.000E+00  0.000E+00  0.000E+00  1.14866E+02  2.157E-01  1.561E+00  2.384E-04  1.699E-04  6.620E-07
   1    4   86     1    86    4.6405E-02  1.7028E-04   4.6234E-02  0.000E+00  0.000E+00  0.000E+00  1.14565E+02  2.154E-01  1.559E+00  2.380E-04  1.708E-04 -4.956E-07
   1    4   87     1    87    4.6234E-02  1.6998E-04   4.6064E-02  0.000E+00  0.000E+00  0.000E+00  1.14265E+02  2.151E-01  1.557E+00  2.377E-04  1.717E-04 -1.729E-06
   1    4   88     1    88    4.6064E-02  1.6967E-04   4.5895E-02  0.000E+00  0.000E+00  0.000E+00  1.13965E+02  2.148E-01  1.555E+00  2.374E-04  1.727E-04 -3.034E-06
   1    4   89     1    89    4.5895E-02  1.6937E-04   4.5725E-02  0.000E+00  0.000E+00  0.000E+00  1.13665E+02  2.145E-01  1.553E+00  2.370E-04  1.738E-04 -4.409E-06
   1    4   90     1    90    4.5725E-02  1.6906E-04   4.5556E-02  0.000E+00  0.000E+00  0.000E+00  1.13364E+02  2.142E-01  1.551E+00  2.367E-04  1.749E-04 -5.851E-06
   1    4   91     1    91    4.5556E-02  1.6876E-04   4.5388E-02  0.000E+00  0.000E+00  0.000E+00  1.13064E+02  2.139E-01  1.548E+00  2.364E-04  1.761E-04 -7.355E-06
   1    4   92     1    92    4.5388E-02  1.6845E-04   4.5219E-02  0.000E+00  0.000E+00  0.000E+00  1.12764E+02  2.136E-01  1.546E+00  2.361E-04  1.774E-04 -8.915E-06
   1    4   93     1    93    4.5219E-02  1.6815E-04   4.5051E-02  0.000E+00  0.000E+00  0.000E+00  1.12463E+02  2.133E-01  1.544E+00  2.357E-04  1.787E-04 -1.053E-05
   1    4   94     1    94    4.5051E-02  1.6784E-04   4.4883E-02  0.000E+00  0.000E+00  0.000E+00  1.12163E+02  2.130E-01  1.542E+00  2.354E-04  1.800E-04 -1.218E-05
   1    4   95     1    95    4.4883E-02  1.6754E-04   4.4716E-02  0.000E+00  0.000E+00  0.000E+00  1.11863E+02  2.127E-01  1.540E+00  2.351E-04  1.814E-04 -1.387E-05
   1    4   96     1    96    4.4716E-02  1.6723E-04   4.4548E-02  0.000E+00  0.000E+00  0.000E+00  1.11562E+02  2.124E-01  1.538E+00  2.347E-04  1.828E-04 -1.558E-05
   1    4   97     1    97    4.4548E-02  1.6693E-04   4.4381E-02  0.000E+00  0.000E+00  0.000E+00  1.11262E+02  2.121E-01  1.535E+00  2.344E-04  1.722E-04 -5.283E-06
   1    4   98     1    98    4.4381E-02  1.6662E-04   4.4215E-02  0.000E+00  0.000E+00  0.000E+00  1.10962E+02  2.118E-01  1.533E+00  2.341E-04  1.735E-04 -6.852E-06
   1    4   99     1    99    4.4215E-02  1.6632E-04   4.4049E-02  0.000E+00  0.000E+00  0.000E+00  1.10662E+02  2.115E-01  1.531E+00  2.337E-04  1.736E-04 -7.245E-06
   1    4  100     1   100    4.4049E-02  1.6601E-04   4.3883E-02  0.000E+00  0.000E+00  0.000E+00  1.10361E+02  2.112E-01  1.529E+00  2.334E-04  1.718E-04 -5.764E-06



1
  VOLUMETRIC BUDGET FOR UNSATURATED ZONE BENEATH STREAMS AT END OF TIME STEP    30 STRESS PERIOD  37
  ------------------------------------------------------------------------------------------------

    CUMULATIVE VOLUMES             L**3    RATES FOR THIS TIME STEP         L**3/T
    ------------------                     ------------------------


          STREAM LOSS =     30285852.0000            STREAM LOSS =        1.8117E-02
    CHANGE IN STORAGE =       912498.3750      CHANGE IN STORAGE =       -4.5695E-03
       RECHARGE TO GW =     29380752.0000         RECHARGE TO GW =        2.2685E-02

             TOTAL IN =     30285852.0000               TOTAL IN =        2.2687E-02

            TOTAL OUT =     30293250.0000              TOTAL OUT =        2.2685E-02

             IN - OUT =        -7398.0000               IN - OUT =        1.9185E-06

  PERCENT DISCREPANCY =           -0.01      PERCENT DISCREPANCY =             0.00



1
  VOLUMETRIC BUDGET FOR ENTIRE MODEL AT END OF TIME STEP   30, STRESS PERIOD  37
  ------------------------------------------------------------------------------

     CUMULATIVE VOLUMES      L**3       RATES FOR THIS TIME STEP      L**3/T
     ------------------                 ------------------------

           IN:                                      IN:
           ---                                      ---
             STORAGE     =   108633096.0000               STORAGE     =           0.4927
       CONSTANT HEAD     =           0.0000         CONSTANT HEAD     =           0.0000
               WELLS     =           0.0000                 WELLS     =           0.0000
     HEAD DEP BOUNDS     =     1286485.5000       HEAD DEP BOUNDS     =       8.1152E-02
      STREAM LEAKAGE     =    29380370.0000        STREAM LEAKAGE     =       2.2685E-02

                TOTAL IN =   139299952.0000                  TOTAL IN =           0.5966

          OUT:                                     OUT:
          ----                                     ----
             STORAGE     =     3027683.2500               STORAGE     =           0.0000
       CONSTANT HEAD     =           0.0000         CONSTANT HEAD     =           0.0000
               WELLS     =   119912936.0000                 WELLS     =           0.5966
     HEAD DEP BOUNDS     =    16359348.0000       HEAD DEP BOUNDS     =           0.0000
      STREAM LEAKAGE     =           0.0000        STREAM LEAKAGE     =           0.0000

               TOTAL OUT =   139299968.0000                 TOTAL OUT =           0.5966

                IN - OUT =         -16.0000                  IN - OUT =      -5.9605E-08

     PERCENT DISCREPANCY =          -0.00         PERCENT DISCREPANCY =          -0.00






         TIME SUMMARY AT END OF TIME STEP   30 IN STRESS PERIOD   37
                    SECONDS     MINUTES      HOURS       DAYS        YEARS
                    -----------------------------------------------------------
   TIME STEP LENGTH 2.49961E+05  4166.0      69.434      2.8931     7.92080E-03
 STRESS PERIOD TIME 2.59200E+06  43200.      720.00      30.000     8.21355E-02
         TOTAL TIME 9.59040E+07 1.59840E+06  26640.      1110.0      3.0390    
1
1
                            STRESS PERIOD NO.   38, LENGTH =   2592000.    
                            -----------------------------------------------

                              NUMBER OF TIME STEPS =    30

                               MULTIPLIER FOR DELT =     1.100

                            INITIAL TIME STEP SIZE =   15757.40    

 REUSING NON-PARAMETER WELLS FROM LAST STRESS PERIOD

      1 WELL 

 REUSING NON-PARAMETER GHB CELLS FROM LAST STRESS PERIOD

      7 GHB CELLS



 CLASSIFICATION & COUNT OF STREAM SEGMENTS BASED ON SOURCE OF INFLOW:

                HEADWATER     DIVERSION     RECEIVES TRIBUTARY FLOW
                ---------     ---------     -----------------------
                     1              0               0



                    INPUT DATA FOR EACH STREAM SEGMENT
 ---------------------------------------------------------------------------------------------

 SEGMENT    SEG.     INFLOW   OVERLAND   STREAM    STREAM   ICALC  OUTFLOW  DIVERSION PRIORITY
    NO.    LENGTH     RATE     RUNOFF      ET       PPT.    METH.  TO SEG.  FROM SEG.    NO.

      1  2.000E+04 3.730E+00 0.000E+00 0.000E+00 0.000E+00    2        0        0        0


         STREAMBED PROPERTIES AND STREAM DIMENSIONS

 SEGMENT     BED HYD. COND.      BED THICKNESS     ELEV.-TOP OF BED     WIDTH OF STREAM     DEPTH OF STREAM    STREAM ROUGHNESS
    No.     UPPER     LOWER     UPPER     LOWER     UPPER     LOWER     UPPER     LOWER     UPPER     LOWER   CHANNEL      BANK

     1  3.500E-07 3.500E-07                                                                                 3.000E-02 4.000E-02

  EIGHT POINT CROSS-SECTION DATA FOR SEGMENTS WITH ICALC = 2
    X VALUES X VALUES START FROM LEFT SIDE LOOKING DOWNSTREAM

     SEGMENT NO.        X1        X2        X3        X4        X5        X6        X7        X8
            1      0.000E+00 2.000E+00 4.000E+00 6.000E+00 8.000E+00 1.000E+01 1.200E+01 1.400E+01

    Z VALUES ARE RELATIVE TO STREAMBED ELEVATION

     SEGMENT NO.          Z1        Z2        Z3        Z4        Z5        Z6        Z7        Z8
            1      6.000E+00 4.500E+00 3.500E+00 0.000E+00 3.000E-01 3.500E+00 4.500E+00 6.000E+00



 
 SOLVING FOR HEAD 
                                                   Max.-Head-Change                         Max.-Flux-Residual
  Residual-Control   Outer-Iter.   Inner-Iter.     Column Row Layer    Maximum-Head-Change  Column Row Layer    Maximum-Flux-Residual          L2-NORM 
          0                 1           2             1    1     1      -0.6005014454E-02      50    3    1        -0.2355164231E+00      0.2952848280E+00
          0                 2           2             1    1     1       0.5882741281E-03      50    3    1         0.1585672240E-01      0.1720458409E-01
          0                 3           1             1    1     1      -0.5195934850E-04      50    3    1        -0.1549010635E-02      0.1672415549E-02
          0                 4           1             1    1     1       0.4091415850E-05      50    3    1         0.1230179285E-03      0.1329028594E-03
          0                 5           1             1    1     1      -0.2831989692E-06      50    3    1        -0.8654639398E-05      0.9351373467E-05

    ------------------------------------------------
       NWT REQUIRED            5 OUTER ITERATIONS 
       AND A TOTAL OF          7 INNER ITERATIONS.
    ------------------------------------------------

 NO OUTPUT CONTROL FOR STRESS PERIOD   38   TIME STEP    1
 
 WELLS WITH REDUCED PUMPING FOR STRESS PERIOD    38 TIME STEP     1
   LAY   ROW   COL         APPL.Q          ACT.Q        GW-HEAD       CELL-BOT
     1     3    50  -0.115019E+01  -0.340648E+00   0.403750E-03   0.000000E+00
     1     5    55  -0.115019E+01  -0.255853E+00   0.338650E-03   0.000000E+00
 
 
 SOLVING FOR HEAD 
                                                   Max.-Head-Change                         Max.-Flux-Residual
  Residual-Control   Outer-Iter.   Inner-Iter.     Column Row Layer    Maximum-Head-Change  Column Row Layer    Maximum-Flux-Residual          L2-NORM 
          0                 1           2             1    1     1      -0.6603893559E-02       1    1    1        -0.1248539746E-02      0.2081710551E-01
          0                 2           2             1    1     1       0.6460574597E-03       1    1    1         0.1248538501E-03      0.2022996609E-02
          0                 3           1             1    1     1      -0.5698815211E-04       1    1    1        -0.1123686149E-04      0.1818881276E-03
          0                 4           1             1    1     1       0.4481861501E-05       1    1    1         0.9000726386E-06      0.1474777022E-04
          0                 5           1             1    1     1      -0.3098752972E-06       1    7    1        -0.6327424229E-07      0.1053699247E-05

    ------------------------------------------------
       NWT REQUIRED            5 OUTER ITERATIONS 
       AND A TOTAL OF          7 INNER ITERATIONS.
    ------------------------------------------------

 NO OUTPUT CONTROL FOR STRESS PERIOD   38   TIME STEP    2
 
 WELLS WITH REDUCED PUMPING FOR STRESS PERIOD    38 TIME STEP     2
   LAY   ROW   COL         APPL.Q          ACT.Q        GW-HEAD       CELL-BOT
     1     3    50  -0.115019E+01  -0.340576E+00   0.403699E-03   0.000000E+00
     1     5    55  -0.115019E+01  -0.255797E+00   0.338608E-03   0.000000E+00
 
 
 SOLVING FOR HEAD 
                                                   Max.-Head-Change                         Max.-Flux-Residual
  Residual-Control   Outer-Iter.   Inner-Iter.     Column Row Layer    Maximum-Head-Change  Column Row Layer    Maximum-Flux-Residual          L2-NORM 
          0                 1           2             1    1     1      -0.7262358494E-02       1    1    1        -0.1248388487E-02      0.2081434638E-01
          0                 2           2             1    1     1       0.7094433912E-03       1    1    1         0.1248386962E-03      0.2022794325E-02
          0                 3           1             1    1     1      -0.6249078727E-04       1    1    1        -0.1123550066E-04      0.1819075072E-03
          0                 4           1             1    1     1       0.4907973994E-05       1    1    1         0.8999636059E-06      0.1476260424E-04
          0                 5           1             1    1     1      -0.3389097264E-06       1    7    1        -0.6326657420E-07      0.1056340437E-05

    ------------------------------------------------
       NWT REQUIRED            5 OUTER ITERATIONS 
       AND A TOTAL OF          7 INNER ITERATIONS.
    ------------------------------------------------

 NO OUTPUT CONTROL FOR STRESS PERIOD   38   TIME STEP    3
 
 WELLS WITH REDUCED PUMPING FOR STRESS PERIOD    38 TIME STEP     3
   LAY   ROW   COL         APPL.Q          ACT.Q        GW-HEAD       CELL-BOT
     1     3    50  -0.114985E+01  -0.340514E+00   0.403726E-03   0.000000E+00
     1     5    55  -0.114985E+01  -0.255746E+00   0.338626E-03   0.000000E+00
 
 
 SOLVING FOR HEAD 
                                                   Max.-Head-Change                         Max.-Flux-Residual
  Residual-Control   Outer-Iter.   Inner-Iter.     Column Row Layer    Maximum-Head-Change  Column Row Layer    Maximum-Flux-Residual          L2-NORM 
          0                 1           2             1    1     1      -0.7986319072E-02       1    1    1        -0.1248222205E-02      0.2081018576E-01
          0                 2           2             1    1     1       0.7789720638E-03       1    1    1         0.1248220347E-03      0.2022414101E-02
          0                 3           1             1    1     1      -0.6851122894E-04       1    1    1        -0.1123400469E-04      0.1819102833E-03
          0                 4           1             1    1     1       0.5372892447E-05       1    7    1         0.8998437244E-06      0.1477634445E-04
          0                 5           1             1    1     1      -0.3704960070E-06       1    7    1        -0.6325814983E-07      0.1058971649E-05

    ------------------------------------------------
       NWT REQUIRED            5 OUTER ITERATIONS 
       AND A TOTAL OF          7 INNER ITERATIONS.
    ------------------------------------------------

 NO OUTPUT CONTROL FOR STRESS PERIOD   38   TIME STEP    4
 
 WELLS WITH REDUCED PUMPING FOR STRESS PERIOD    38 TIME STEP     4
   LAY   ROW   COL         APPL.Q          ACT.Q        GW-HEAD       CELL-BOT
     1     3    50  -0.115016E+01  -0.340445E+00   0.403613E-03   0.000000E+00
     1     5    55  -0.115016E+01  -0.255691E+00   0.338532E-03   0.000000E+00
 
 
 SOLVING FOR HEAD 
                                                   Max.-Head-Change                         Max.-Flux-Residual
  Residual-Control   Outer-Iter.   Inner-Iter.     Column Row Layer    Maximum-Head-Change  Column Row Layer    Maximum-Flux-Residual          L2-NORM 
          0                 1           2             1    1     1      -0.8782268043E-02       1    1    1        -0.1248039420E-02      0.2080546982E-01
          0                 2           2             1    1     1       0.8552368464E-03       1    1    1         0.1248037170E-03      0.2021931458E-02
          0                 3           1             1    1     1      -0.7509775258E-04       1    1    1        -0.1123236029E-04      0.1818973522E-03
          0                 4           1             1    1     1       0.5880061803E-05       1    7    1         0.8997119449E-06      0.1478868366E-04
          0                 5           1             1    1     1      -0.4048462468E-06       1    7    1        -0.6324888702E-07      0.1061560782E-05

    ------------------------------------------------
       NWT REQUIRED            5 OUTER ITERATIONS 
       AND A TOTAL OF          7 INNER ITERATIONS.
    ------------------------------------------------

 NO OUTPUT CONTROL FOR STRESS PERIOD   38   TIME STEP    5
 
 WELLS WITH REDUCED PUMPING FOR STRESS PERIOD    38 TIME STEP     5
   LAY   ROW   COL         APPL.Q          ACT.Q        GW-HEAD       CELL-BOT
     1     3    50  -0.115008E+01  -0.340370E+00   0.403577E-03   0.000000E+00
     1     5    55  -0.115008E+01  -0.255630E+00   0.338499E-03   0.000000E+00
 
 
 SOLVING FOR HEAD 
                                                   Max.-Head-Change                         Max.-Flux-Residual
  Residual-Control   Outer-Iter.   Inner-Iter.     Column Row Layer    Maximum-Head-Change  Column Row Layer    Maximum-Flux-Residual          L2-NORM 
          0                 1           2             1    1     1      -0.9657339968E-02       1    1    1        -0.1247838482E-02      0.2080019021E-01
          0                 2           2             1    1     1       0.9388899824E-03       1    1    1         0.1247835772E-03      0.2021442202E-02
          0                 3           1             1    1     1      -0.8230341206E-04       1    1    1        -0.1123055263E-04      0.1818893491E-03
          0                 4           1             1    1     1       0.6433260573E-05       1    1    1         0.8995670875E-06      0.1480176237E-04
          0                 5           1             1    1     1      -0.4421923133E-06       1    7    1        -0.6323869606E-07      0.1064252055E-05

    ------------------------------------------------
       NWT REQUIRED            5 OUTER ITERATIONS 
       AND A TOTAL OF          7 INNER ITERATIONS.
    ------------------------------------------------

 NO OUTPUT CONTROL FOR STRESS PERIOD   38   TIME STEP    6
 
 WELLS WITH REDUCED PUMPING FOR STRESS PERIOD    38 TIME STEP     6
   LAY   ROW   COL         APPL.Q          ACT.Q        GW-HEAD       CELL-BOT
     1     3    50  -0.114993E+01  -0.340287E+00   0.403549E-03   0.000000E+00
     1     5    55  -0.114993E+01  -0.255562E+00   0.338472E-03   0.000000E+00
 
 
 SOLVING FOR HEAD 
                                                   Max.-Head-Change                         Max.-Flux-Residual
  Residual-Control   Outer-Iter.   Inner-Iter.     Column Row Layer    Maximum-Head-Change  Column Row Layer    Maximum-Flux-Residual          L2-NORM 
          0                 1           2             1    1     1      -0.1061937094E-01       1    1    1        -0.1247617572E-02      0.2079464233E-01
          0                 2           2             1    1     1       0.1030648333E-02       1    1    1         0.1247614324E-03      0.2020852243E-02
          0                 3           1             1    1     1      -0.9018653332E-04       1    1    1        -0.1122856532E-04      0.1818682927E-03
          0                 4           1             1    1     1       0.7036636533E-05       1    1    1         0.8994078229E-06      0.1481371792E-04
          0                 5           1             1    1     1      -0.4827880335E-06       1    7    1        -0.6322750634E-07      0.1066907120E-05

    ------------------------------------------------
       NWT REQUIRED            5 OUTER ITERATIONS 
       AND A TOTAL OF          7 INNER ITERATIONS.
    ------------------------------------------------

 NO OUTPUT CONTROL FOR STRESS PERIOD   38   TIME STEP    7
 
 WELLS WITH REDUCED PUMPING FOR STRESS PERIOD    38 TIME STEP     7
   LAY   ROW   COL         APPL.Q          ACT.Q        GW-HEAD       CELL-BOT
     1     3    50  -0.114987E+01  -0.340197E+00   0.403499E-03   0.000000E+00
     1     5    55  -0.114987E+01  -0.255489E+00   0.338428E-03   0.000000E+00
 
 
 SOLVING FOR HEAD 
                                                   Max.-Head-Change                         Max.-Flux-Residual
  Residual-Control   Outer-Iter.   Inner-Iter.     Column Row Layer    Maximum-Head-Change  Column Row Layer    Maximum-Flux-Residual          L2-NORM 
          0                 1           2             1    1     1      -0.1167697019E-01       1    1    1        -0.1247374691E-02      0.2078836428E-01
          0                 2           2             1    1     1       0.1131300261E-02       1    1    1         0.1247370819E-03      0.2020230355E-02
          0                 3           1             1    1     1      -0.9881130691E-04       1    1    1        -0.1122638042E-04      0.1818480599E-03
          0                 4           1             1    1     1       0.7694748214E-05       1    1    1         0.8992327167E-06      0.1482585742E-04
          0                 5           1             1    1     1      -0.5269114704E-06       1    1    1        -0.6321519663E-07      0.1069606808E-05

    ------------------------------------------------
       NWT REQUIRED            5 OUTER ITERATIONS 
       AND A TOTAL OF          7 INNER ITERATIONS.
    ------------------------------------------------

 NO OUTPUT CONTROL FOR STRESS PERIOD   38   TIME STEP    8
 
 WELLS WITH REDUCED PUMPING FOR STRESS PERIOD    38 TIME STEP     8
   LAY   ROW   COL         APPL.Q          ACT.Q        GW-HEAD       CELL-BOT
     1     3    50  -0.114990E+01  -0.340097E+00   0.403423E-03   0.000000E+00
     1     5    55  -0.114990E+01  -0.255408E+00   0.338361E-03   0.000000E+00
 
 
 SOLVING FOR HEAD 
                                                   Max.-Head-Change                         Max.-Flux-Residual
  Residual-Control   Outer-Iter.   Inner-Iter.     Column Row Layer    Maximum-Head-Change  Column Row Layer    Maximum-Flux-Residual          L2-NORM 
          0                 1           2             1    1     1      -0.1283959154E-01       1    1    1        -0.1247107648E-02      0.2078132465E-01
          0                 2           2             1    1     1       0.1241712489E-02       1    1    1         0.1247103053E-03      0.2019535722E-02
          0                 3           2             1    1     1      -0.1082489441E-03       1    1    1        -0.1122397820E-04      0.1818175147E-03
          0                 4           1             1    1     1       0.8413210188E-05       1    1    1         0.8990401952E-06      0.1483810135E-04
          0                 5           1             1    1     1      -0.5749076817E-06       1    1    1        -0.6320165724E-07      0.1072325713E-05

    ------------------------------------------------
       NWT REQUIRED            5 OUTER ITERATIONS 
       AND A TOTAL OF          8 INNER ITERATIONS.
    ------------------------------------------------

 NO OUTPUT CONTROL FOR STRESS PERIOD   38   TIME STEP    9
 
 WELLS WITH REDUCED PUMPING FOR STRESS PERIOD    38 TIME STEP     9
   LAY   ROW   COL         APPL.Q          ACT.Q        GW-HEAD       CELL-BOT
     1     3    50  -0.114995E+01  -0.339987E+00   0.403334E-03   0.000000E+00
     1     5    55  -0.114995E+01  -0.255319E+00   0.338284E-03   0.000000E+00
 
 
 SOLVING FOR HEAD 
                                                   Max.-Head-Change                         Max.-Flux-Residual
  Residual-Control   Outer-Iter.   Inner-Iter.     Column Row Layer    Maximum-Head-Change  Column Row Layer    Maximum-Flux-Residual          L2-NORM 
          0                 1           2             1    1     1      -0.1411761932E-01       1    1    1        -0.1246814042E-02      0.2077473377E-01
          0                 2           2             1    1     1       0.1362838333E-02       1    1    1         0.1246808613E-03      0.2018780010E-02
          0                 3           2             1    1     1      -0.1185765048E-03       1    1    1        -0.1122133704E-04      0.1817759596E-03
          0                 4           1             1    1     1       0.9196737100E-05       1    7    1         0.8988285107E-06      0.1484965043E-04
          0                 5           1             1    1     1      -0.6270573982E-06       1    7    1        -0.6318678025E-07      0.1075121094E-05

    ------------------------------------------------
       NWT REQUIRED            5 OUTER ITERATIONS 
       AND A TOTAL OF          8 INNER ITERATIONS.
    ------------------------------------------------

 NO OUTPUT CONTROL FOR STRESS PERIOD   38   TIME STEP   10
 
 WELLS WITH REDUCED PUMPING FOR STRESS PERIOD    38 TIME STEP    10
   LAY   ROW   COL         APPL.Q          ACT.Q        GW-HEAD       CELL-BOT
     1     3    50  -0.114990E+01  -0.339867E+00   0.403260E-03   0.000000E+00
     1     5    55  -0.114990E+01  -0.255221E+00   0.338219E-03   0.000000E+00
 
 
 SOLVING FOR HEAD 
                                                   Max.-Head-Change                         Max.-Flux-Residual
  Residual-Control   Outer-Iter.   Inner-Iter.     Column Row Layer    Maximum-Head-Change  Column Row Layer    Maximum-Flux-Residual          L2-NORM 
          0                 1           2             1    1     1      -0.1552245156E-01       1    1    1        -0.1246491232E-02      0.2076707313E-01
          0                 2           2             1    1     1       0.1495725637E-02       1    1    1         0.1246484847E-03      0.2018043675E-02
          0                 3           2             1    1     1      -0.1298800462E-03       1    1    1        -0.1121843322E-04      0.1817435403E-03
          0                 4           1             1    1     1       0.1005182486E-04       1    1    1         0.8985957685E-06      0.1486086313E-04
          0                 5           1             1    1     1      -0.6837553849E-06       1    1    1        -0.6317041823E-07      0.1077765912E-05

    ------------------------------------------------
       NWT REQUIRED            5 OUTER ITERATIONS 
       AND A TOTAL OF          8 INNER ITERATIONS.
    ------------------------------------------------

 NO OUTPUT CONTROL FOR STRESS PERIOD   38   TIME STEP   11
 
 WELLS WITH REDUCED PUMPING FOR STRESS PERIOD    38 TIME STEP    11
   LAY   ROW   COL         APPL.Q          ACT.Q        GW-HEAD       CELL-BOT
     1     3    50  -0.115004E+01  -0.339735E+00   0.403138E-03   0.000000E+00
     1     5    55  -0.115004E+01  -0.255114E+00   0.338115E-03   0.000000E+00
 
 
 SOLVING FOR HEAD 
                                                   Max.-Head-Change                         Max.-Flux-Residual
  Residual-Control   Outer-Iter.   Inner-Iter.     Column Row Layer    Maximum-Head-Change  Column Row Layer    Maximum-Flux-Residual          L2-NORM 
          0                 1           2             1    1     1      -0.1706660151E-01       1    1    1        -0.1246136323E-02      0.2075818924E-01
          0                 2           2             1    1     1       0.1641526436E-02       1    1    1         0.1246128844E-03      0.2017190267E-02
          0                 3           2             1    1     1      -0.1422539883E-03       1    1    1        -0.1121524065E-04      0.1816943343E-03
          0                 4           1             1    1     1       0.1098525015E-04       1    7    1         0.8983398816E-06      0.1487013456E-04
          0                 5           1             1    1     1      -0.7454078468E-06       1    7    1        -0.6315243173E-07      0.1080230350E-05

    ------------------------------------------------
       NWT REQUIRED            5 OUTER ITERATIONS 
       AND A TOTAL OF          8 INNER ITERATIONS.
    ------------------------------------------------

 NO OUTPUT CONTROL FOR STRESS PERIOD   38   TIME STEP   12
 
 WELLS WITH REDUCED PUMPING FOR STRESS PERIOD    38 TIME STEP    12
   LAY   ROW   COL         APPL.Q          ACT.Q        GW-HEAD       CELL-BOT
     1     3    50  -0.115006E+01  -0.339590E+00   0.403032E-03   0.000000E+00
     1     5    55  -0.115006E+01  -0.254996E+00   0.338022E-03   0.000000E+00
 
 
 SOLVING FOR HEAD 
                                                   Max.-Head-Change                         Max.-Flux-Residual
  Residual-Control   Outer-Iter.   Inner-Iter.     Column Row Layer    Maximum-Head-Change  Column Row Layer    Maximum-Flux-Residual          L2-NORM 
          0                 1           2             1    1     1      -0.1876380252E-01       1    1    1        -0.1245746135E-02      0.2074889744E-01
          0                 2           2             1    1     1       0.1801506882E-02       1    1    1         0.1245737408E-03      0.2016213128E-02
          0                 3           2             1    1     1      -0.1558022942E-03       1    1    1        -0.1121173077E-04      0.1816332085E-03
          0                 4           1             1    1     1       0.1200448668E-04       1    7    1         0.8980585573E-06      0.1487830510E-04
          0                 5           1             1    1     1      -0.8124584124E-06       1    7    1        -0.6313266043E-07      0.1082562713E-05

    ------------------------------------------------
       NWT REQUIRED            5 OUTER ITERATIONS 
       AND A TOTAL OF          8 INNER ITERATIONS.
    ------------------------------------------------

 NO OUTPUT CONTROL FOR STRESS PERIOD   38   TIME STEP   13
 
 WELLS WITH REDUCED PUMPING FOR STRESS PERIOD    38 TIME STEP    13
   LAY   ROW   COL         APPL.Q          ACT.Q        GW-HEAD       CELL-BOT
     1     3    50  -0.115006E+01  -0.339430E+00   0.402920E-03   0.000000E+00
     1     5    55  -0.115006E+01  -0.254867E+00   0.337924E-03   0.000000E+00
 
 
 SOLVING FOR HEAD 
                                                   Max.-Head-Change                         Max.-Flux-Residual
  Residual-Control   Outer-Iter.   Inner-Iter.     Column Row Layer    Maximum-Head-Change  Column Row Layer    Maximum-Flux-Residual          L2-NORM 
          0                 1           2             1    1     1      -0.2062912241E-01       1    1    1        -0.1245317173E-02      0.2073836913E-01
          0                 2           2             1    1     1       0.1977058031E-02       1    1    1         0.1245307028E-03      0.2015192997E-02
          0                 3           2             1    1     1      -0.1706393864E-03       1    1    1        -0.1120787210E-04      0.1815658840E-03
          0                 4           1             1    1     1       0.1311777064E-04       1    1    1         0.8977492634E-06      0.1488527804E-04
          0                 5           1             1    1     1      -0.8853883750E-06       1    1    1        -0.6311091738E-07      0.1084698337E-05

    ------------------------------------------------
       NWT REQUIRED            5 OUTER ITERATIONS 
       AND A TOTAL OF          8 INNER ITERATIONS.
    ------------------------------------------------

 NO OUTPUT CONTROL FOR STRESS PERIOD   38   TIME STEP   14
 
 WELLS WITH REDUCED PUMPING FOR STRESS PERIOD    38 TIME STEP    14
   LAY   ROW   COL         APPL.Q          ACT.Q        GW-HEAD       CELL-BOT
     1     3    50  -0.115002E+01  -0.339255E+00   0.402803E-03   0.000000E+00
     1     5    55  -0.115002E+01  -0.254725E+00   0.337822E-03   0.000000E+00
 
 
 SOLVING FOR HEAD 
                                                   Max.-Head-Change                         Max.-Flux-Residual
  Residual-Control   Outer-Iter.   Inner-Iter.     Column Row Layer    Maximum-Head-Change  Column Row Layer    Maximum-Flux-Residual          L2-NORM 
          0                 1           2             1    1     1      -0.2267908841E-01       1    1    1        -0.1244845600E-02      0.2072682083E-01
          0                 2           2             1    1     1       0.2169707576E-02       1    1    1         0.1244833848E-03      0.2014048538E-02
          0                 3           2             1    1     1      -0.1868911400E-03       1    1    1        -0.1120363012E-04      0.1814880307E-03
          0                 4           1             1    1     1       0.1433417084E-04       1    7    1         0.8974092416E-06      0.1489130738E-04
          0                 5           1             1    1     1      -0.9647157587E-06       1    1    1        -0.6308701472E-07      0.1086665175E-05

    ------------------------------------------------
       NWT REQUIRED            5 OUTER ITERATIONS 
       AND A TOTAL OF          8 INNER ITERATIONS.
    ------------------------------------------------

 NO OUTPUT CONTROL FOR STRESS PERIOD   38   TIME STEP   15
 
 WELLS WITH REDUCED PUMPING FOR STRESS PERIOD    38 TIME STEP    15
   LAY   ROW   COL         APPL.Q          ACT.Q        GW-HEAD       CELL-BOT
     1     3    50  -0.115002E+01  -0.339063E+00   0.402667E-03   0.000000E+00
     1     5    55  -0.115002E+01  -0.254570E+00   0.337703E-03   0.000000E+00
 
 
 SOLVING FOR HEAD 
                                                   Max.-Head-Change                         Max.-Flux-Residual
  Residual-Control   Outer-Iter.   Inner-Iter.     Column Row Layer    Maximum-Head-Change  Column Row Layer    Maximum-Flux-Residual          L2-NORM 
          0                 1           2             1    1     1      -0.2493182350E-01       1    1    1        -0.1244327202E-02      0.2071351971E-01
          0                 2           2             1    1     1       0.2381132604E-02       1    1    1         0.1244313633E-03      0.2012782484E-02
          0                 3           2             1    1     1      -0.2046959562E-03       1    1    1        -0.1119896690E-04      0.1814015793E-03
          0                 4           1             1    1     1       0.1566366194E-04       1    1    1         0.8970354521E-06      0.1489639190E-04
          0                 5           1             1    1     1      -0.1050992981E-05       1    1    1        -0.6306074241E-07      0.1088408871E-05
          0                 6           1             1    1     1       0.6081683566E-07       1    4    1        -0.4772488182E-08      0.6904592612E-07

    ------------------------------------------------
       NWT REQUIRED            6 OUTER ITERATIONS 
       AND A TOTAL OF          9 INNER ITERATIONS.
    ------------------------------------------------

 NO OUTPUT CONTROL FOR STRESS PERIOD   38   TIME STEP   16
 
 WELLS WITH REDUCED PUMPING FOR STRESS PERIOD    38 TIME STEP    16
   LAY   ROW   COL         APPL.Q          ACT.Q        GW-HEAD       CELL-BOT
     1     3    50  -0.115002E+01  -0.338851E+00   0.402519E-03   0.000000E+00
     1     5    55  -0.115002E+01  -0.254399E+00   0.337573E-03   0.000000E+00
 
 
 SOLVING FOR HEAD 
                                                   Max.-Head-Change                         Max.-Flux-Residual
  Residual-Control   Outer-Iter.   Inner-Iter.     Column Row Layer    Maximum-Head-Change  Column Row Layer    Maximum-Flux-Residual          L2-NORM 
          0                 1           2             1    1     1      -0.2740720169E-01       1    7    1        -0.1243758043E-02      0.2069812651E-01
          0                 2           2             1    1     1       0.2613174170E-02       1    7    1         0.1243742424E-03      0.2011315016E-02
          0                 3           2             1    1     1      -0.2242059932E-03       1    7    1        -0.1119384700E-04      0.1812910341E-03
          0                 4           1             1    1     1       0.1711720560E-04       1    7    1         0.8966250467E-06      0.1489857079E-04
          0                 5           1             1    1     1      -0.1144799892E-05       1    1    1        -0.6303189082E-07      0.1089708104E-05
          0                 6           1             1    1     1       0.6600038384E-07       2    4    1        -0.4857639624E-08      0.6924985947E-07

    ------------------------------------------------
       NWT REQUIRED            6 OUTER ITERATIONS 
       AND A TOTAL OF          9 INNER ITERATIONS.
    ------------------------------------------------

 NO OUTPUT CONTROL FOR STRESS PERIOD   38   TIME STEP   17
 
 WELLS WITH REDUCED PUMPING FOR STRESS PERIOD    38 TIME STEP    17
   LAY   ROW   COL         APPL.Q          ACT.Q        GW-HEAD       CELL-BOT
     1     3    50  -0.115005E+01  -0.338619E+00   0.402350E-03   0.000000E+00
     1     5    55  -0.115005E+01  -0.254211E+00   0.337427E-03   0.000000E+00
 
 
 SOLVING FOR HEAD 
                                                   Max.-Head-Change                         Max.-Flux-Residual
  Residual-Control   Outer-Iter.   Inner-Iter.     Column Row Layer    Maximum-Head-Change  Column Row Layer    Maximum-Flux-Residual          L2-NORM 
          0                 1           2             1    1     1      -0.3012697954E-01       1    7    1        -0.1243131996E-02      0.2068318920E-01
          0                 2           2             1    1     1       0.2867849078E-02       1    7    1         0.1243114068E-03      0.2009675035E-02
          0                 3           2             1    1     1      -0.2455881044E-03       1    7    1        -0.1118821528E-04      0.1811556093E-03
          0                 4           1             1    1     1       0.1870680227E-04       1    7    1         0.8961736135E-06      0.1489822159E-04
          0                 5           1             1    1     1      -0.1246732120E-05       1    1    1        -0.6300016153E-07      0.1090576661E-05
          0                 6           1             1    1     1       0.7158693575E-07       2    4    1        -0.4937771081E-08      0.6940935720E-07

    ------------------------------------------------
       NWT REQUIRED            6 OUTER ITERATIONS 
       AND A TOTAL OF          9 INNER ITERATIONS.
    ------------------------------------------------

 NO OUTPUT CONTROL FOR STRESS PERIOD   38   TIME STEP   18
 
 WELLS WITH REDUCED PUMPING FOR STRESS PERIOD    38 TIME STEP    18
   LAY   ROW   COL         APPL.Q          ACT.Q        GW-HEAD       CELL-BOT
     1     3    50  -0.115004E+01  -0.338364E+00   0.402172E-03   0.000000E+00
     1     5    55  -0.115004E+01  -0.254005E+00   0.337272E-03   0.000000E+00
 
 
 SOLVING FOR HEAD 
                                                   Max.-Head-Change                         Max.-Flux-Residual
  Residual-Control   Outer-Iter.   Inner-Iter.     Column Row Layer    Maximum-Head-Change  Column Row Layer    Maximum-Flux-Residual          L2-NORM 
          0                 1           2             1    1     1      -0.3311500121E-01       1    7    1        -0.1242443617E-02      0.2066505465E-01
          0                 2           2             1    1     1       0.3147369394E-02       1    7    1         0.1242423096E-03      0.2008060614E-02
          0                 3           2             1    1     1      -0.2690255099E-03       1    7    1        -0.1118202274E-04      0.1810426129E-03
          0                 4           1             1    1     1       0.2044559615E-04       1    1    1         0.8956772142E-06      0.1490016636E-04
          0                 5           1             1    1     1      -0.1357384421E-05       1    1    1        -0.6296527033E-07      0.1091294309E-05
          0                 6           1             1    1     1       0.7759239765E-07       2    4    1        -0.5012090298E-08      0.6953476883E-07

    ------------------------------------------------
       NWT REQUIRED            6 OUTER ITERATIONS 
       AND A TOTAL OF          9 INNER ITERATIONS.
    ------------------------------------------------

 NO OUTPUT CONTROL FOR STRESS PERIOD   38   TIME STEP   19
 
 WELLS WITH REDUCED PUMPING FOR STRESS PERIOD    38 TIME STEP    19
   LAY   ROW   COL         APPL.Q          ACT.Q        GW-HEAD       CELL-BOT
     1     3    50  -0.114997E+01  -0.338083E+00   0.401987E-03   0.000000E+00
     1     5    55  -0.114997E+01  -0.253779E+00   0.337110E-03   0.000000E+00
 
 
 SOLVING FOR HEAD 
                                                   Max.-Head-Change                         Max.-Flux-Residual
  Residual-Control   Outer-Iter.   Inner-Iter.     Column Row Layer    Maximum-Head-Change  Column Row Layer    Maximum-Flux-Residual          L2-NORM 
          0                 1           2             1    1     1      -0.3639737086E-01       1    7    1        -0.1241686918E-02      0.2064459809E-01
          0                 2           2             1    1     1       0.3454157954E-02       1    7    1         0.1241663486E-03      0.2006042566E-02
          0                 3           2             1    1     1      -0.2947190370E-03       1    7    1        -0.1117521545E-04      0.1808749708E-03
          0                 4           1             1    1     1       0.2234793788E-04       1    7    1         0.8951315298E-06      0.1489601557E-04
          0                 5           1             1    1     1      -0.1477328385E-05       1    1    1        -0.6292690813E-07      0.1091094474E-05
          0                 6           1             1    1     1       0.8402431195E-07       2    4    1        -0.5080352139E-08      0.6957109391E-07

    ------------------------------------------------
       NWT REQUIRED            6 OUTER ITERATIONS 
       AND A TOTAL OF          9 INNER ITERATIONS.
    ------------------------------------------------

 NO OUTPUT CONTROL FOR STRESS PERIOD   38   TIME STEP   20
 
 WELLS WITH REDUCED PUMPING FOR STRESS PERIOD    38 TIME STEP    20
   LAY   ROW   COL         APPL.Q          ACT.Q        GW-HEAD       CELL-BOT
     1     3    50  -0.114997E+01  -0.337775E+00   0.401771E-03   0.000000E+00
     1     5    55  -0.114997E+01  -0.253531E+00   0.336923E-03   0.000000E+00
 
 
 SOLVING FOR HEAD 
                                                   Max.-Head-Change                         Max.-Flux-Residual
  Residual-Control   Outer-Iter.   Inner-Iter.     Column Row Layer    Maximum-Head-Change  Column Row Layer    Maximum-Flux-Residual          L2-NORM 
          0                 1           2             1    1     1      -0.4000265204E-01       1    7    1        -0.1240855226E-02      0.2062394377E-01
          0                 2           2             1    1     1       0.3790866524E-02       1    7    1         0.1240828531E-03      0.2003892511E-02
          0                 3           2             1    1     1      -0.3228885978E-03       1    7    1        -0.1116773334E-04      0.1806838190E-03
          0                 4           1             1    1     1       0.2442944859E-04       1    7    1         0.8945317478E-06      0.1488880702E-04
          0                 5           1             1    1     1      -0.1607072087E-05       1    1    1        -0.6288474452E-07      0.1090123648E-05
          0                 6           1             1    1     1       0.9087774996E-07       2    4    1        -0.5142183568E-08      0.6952157700E-07

    ------------------------------------------------
       NWT REQUIRED            6 OUTER ITERATIONS 
       AND A TOTAL OF          9 INNER ITERATIONS.
    ------------------------------------------------

 NO OUTPUT CONTROL FOR STRESS PERIOD   38   TIME STEP   21
 
 WELLS WITH REDUCED PUMPING FOR STRESS PERIOD    38 TIME STEP    21
   LAY   ROW   COL         APPL.Q          ACT.Q        GW-HEAD       CELL-BOT
     1     3    50  -0.115000E+01  -0.337436E+00   0.401525E-03   0.000000E+00
     1     5    55  -0.115000E+01  -0.253258E+00   0.336710E-03   0.000000E+00
 
 
 SOLVING FOR HEAD 
                                                   Max.-Head-Change                         Max.-Flux-Residual
  Residual-Control   Outer-Iter.   Inner-Iter.     Column Row Layer    Maximum-Head-Change  Column Row Layer    Maximum-Flux-Residual          L2-NORM 
          0                 1           2             1    1     1      -0.4396207990E-01       1    7    1        -0.1239941174E-02      0.2059999184E-01
          0                 2           2             1    1     1       0.4160394808E-02       1    1    1         0.1239910824E-03      0.2001656298E-02
          0                 3           2             1    1     1      -0.3537747063E-03       1    7    1        -0.1115951003E-04      0.1805076161E-03
          0                 4           1             1    1     1       0.2670707662E-04       1    7    1         0.8938725440E-06      0.1488375262E-04
          0                 5           1             1    1     1      -0.1747010760E-05       1    1    1        -0.6283841358E-07      0.1088704011E-05
          0                 6           1             1    1     1       0.9812924805E-07       7    4    1        -0.5209539466E-08      0.6939841881E-07

    ------------------------------------------------
       NWT REQUIRED            6 OUTER ITERATIONS 
       AND A TOTAL OF          9 INNER ITERATIONS.
    ------------------------------------------------

 NO OUTPUT CONTROL FOR STRESS PERIOD   38   TIME STEP   22
 
 WELLS WITH REDUCED PUMPING FOR STRESS PERIOD    38 TIME STEP    22
   LAY   ROW   COL         APPL.Q          ACT.Q        GW-HEAD       CELL-BOT
     1     3    50  -0.114999E+01  -0.337065E+00   0.401265E-03   0.000000E+00
     1     5    55  -0.114999E+01  -0.252960E+00   0.336484E-03   0.000000E+00
 
 
 SOLVING FOR HEAD 
                                                   Max.-Head-Change                         Max.-Flux-Residual
  Residual-Control   Outer-Iter.   Inner-Iter.     Column Row Layer    Maximum-Head-Change  Column Row Layer    Maximum-Flux-Residual          L2-NORM 
          0                 1           2             1    1     1      -0.4830990979E-01       1    7    1        -0.1238936659E-02      0.2057458350E-01
          0                 2           2             1    1     1       0.4565982480E-02       1    1    1         0.1238902236E-03      0.1999062573E-02
          0                 3           2             1    1     1      -0.3876507381E-03       1    7    1        -0.1115047263E-04      0.1802719318E-03
          0                 4           1             1    1     1       0.2920024748E-04       1    7    1         0.8931480755E-06      0.1487129971E-04
          0                 5           1             3    1     1      -0.1898263484E-05       1    7    1        -0.6278749165E-07      0.1085845989E-05
          0                 6           1             3    1     1       0.1057442157E-06       7    4    1        -0.5264375602E-08      0.6912799045E-07

    ------------------------------------------------
       NWT REQUIRED            6 OUTER ITERATIONS 
       AND A TOTAL OF          9 INNER ITERATIONS.
    ------------------------------------------------

 NO OUTPUT CONTROL FOR STRESS PERIOD   38   TIME STEP   23
 
 WELLS WITH REDUCED PUMPING FOR STRESS PERIOD    38 TIME STEP    23
   LAY   ROW   COL         APPL.Q          ACT.Q        GW-HEAD       CELL-BOT
     1     3    50  -0.115002E+01  -0.336656E+00   0.400970E-03   0.000000E+00
     1     5    55  -0.115002E+01  -0.252631E+00   0.336229E-03   0.000000E+00
 
 
 SOLVING FOR HEAD 
                                                   Max.-Head-Change                         Max.-Flux-Residual
  Residual-Control   Outer-Iter.   Inner-Iter.     Column Row Layer    Maximum-Head-Change  Column Row Layer    Maximum-Flux-Residual          L2-NORM 
          0                 1           2             1    1     1      -0.5309649131E-01       1    7    1        -0.1237834408E-02      0.2054720176E-01
          0                 2           2             1    1     1       0.5013154230E-02       1    1    1         0.1237797434E-03      0.1996409913E-02
          0                 3           2             1    1     1      -0.4250478667E-03       1    7    1        -0.1114057073E-04      0.1800335068E-03
          0                 4           1             1    1     1       0.3195210617E-04       1    1    1         0.8923543291E-06      0.1485753246E-04
          0                 5           1             3    1     1      -0.2062632384E-05       7    4    1         0.6276528097E-07      0.1081825232E-05
          0                 6           1             3    1     1       0.1138298746E-06       7    4    1        -0.5306553419E-08      0.6871518894E-07

    ------------------------------------------------
       NWT REQUIRED            6 OUTER ITERATIONS 
       AND A TOTAL OF          9 INNER ITERATIONS.
    ------------------------------------------------

 NO OUTPUT CONTROL FOR STRESS PERIOD   38   TIME STEP   24
 
 WELLS WITH REDUCED PUMPING FOR STRESS PERIOD    38 TIME STEP    24
   LAY   ROW   COL         APPL.Q          ACT.Q        GW-HEAD       CELL-BOT
     1     3    50  -0.114999E+01  -0.336205E+00   0.400657E-03   0.000000E+00
     1     5    55  -0.114999E+01  -0.252269E+00   0.335957E-03   0.000000E+00
 
 
 SOLVING FOR HEAD 
                                                   Max.-Head-Change                         Max.-Flux-Residual
  Residual-Control   Outer-Iter.   Inner-Iter.     Column Row Layer    Maximum-Head-Change  Column Row Layer    Maximum-Flux-Residual          L2-NORM 
          0                 1           3             1    1     1      -0.5837237246E-01       1    5    1        -0.1237022680E-02      0.2051888599E-01
          0                 2           2             1    1     1       0.5506247047E-02       1    5    1         0.1236967153E-03      0.1993584232E-02
          0                 3           2             1    1     1      -0.4662838140E-03       1    5    1        -0.1113329620E-04      0.1797655215E-03
          0                 4           1             1    1     1       0.3498126212E-04       1    5    1         0.8917695240E-06      0.1483972594E-04
          0                 5           1             3    1     1      -0.2237845225E-05       7    4    1         0.6320299306E-07      0.1076290351E-05
          0                 6           1             3    1     1       0.1220909953E-06       7    4    1        -0.5350123899E-08      0.6813614954E-07

    ------------------------------------------------
       NWT REQUIRED            6 OUTER ITERATIONS 
       AND A TOTAL OF         10 INNER ITERATIONS.
    ------------------------------------------------

 NO OUTPUT CONTROL FOR STRESS PERIOD   38   TIME STEP   25
 
 WELLS WITH REDUCED PUMPING FOR STRESS PERIOD    38 TIME STEP    25
   LAY   ROW   COL         APPL.Q          ACT.Q        GW-HEAD       CELL-BOT
     1     3    50  -0.115001E+01  -0.335708E+00   0.400302E-03   0.000000E+00
     1     5    55  -0.115001E+01  -0.251871E+00   0.335651E-03   0.000000E+00
 
 
 SOLVING FOR HEAD 
                                                   Max.-Head-Change                         Max.-Flux-Residual
  Residual-Control   Outer-Iter.   Inner-Iter.     Column Row Layer    Maximum-Head-Change  Column Row Layer    Maximum-Flux-Residual          L2-NORM 
          0                 1           3             1    1     1      -0.6417422479E-01       1    5    1        -0.1236590935E-02      0.2048914470E-01
          0                 2           2             1    1     1       0.6048860781E-02       1    5    1         0.1236530310E-03      0.1990648590E-02
          0                 3           2             1    1     1      -0.5116951861E-03       1    5    1        -0.1112941815E-04      0.1794844139E-03
          0                 4           1             1    1     1       0.3831475074E-04       1    5    1         0.8914581144E-06      0.1481983784E-04
          0                 5           1             3    1     1      -0.2423871123E-05       9    4    1         0.6401090502E-07      0.1069665579E-05
          0                 6           1             3    1     1       0.1304315578E-06       9    4    1        -0.5415369486E-08      0.6744644123E-07

    ------------------------------------------------
       NWT REQUIRED            6 OUTER ITERATIONS 
       AND A TOTAL OF         10 INNER ITERATIONS.
    ------------------------------------------------

 NO OUTPUT CONTROL FOR STRESS PERIOD   38   TIME STEP   26
 
 WELLS WITH REDUCED PUMPING FOR STRESS PERIOD    38 TIME STEP    26
   LAY   ROW   COL         APPL.Q          ACT.Q        GW-HEAD       CELL-BOT
     1     3    50  -0.115001E+01  -0.335158E+00   0.399915E-03   0.000000E+00
     1     5    55  -0.115001E+01  -0.251431E+00   0.335316E-03   0.000000E+00
 
 
 SOLVING FOR HEAD 
                                                   Max.-Head-Change                         Max.-Flux-Residual
  Residual-Control   Outer-Iter.   Inner-Iter.     Column Row Layer    Maximum-Head-Change  Column Row Layer    Maximum-Flux-Residual          L2-NORM 
          0                 1           3             1    1     1      -0.7054356151E-01       1    5    1        -0.1236018093E-02      0.2045679142E-01
          0                 2           2             1    1     1       0.6645455188E-02       1    5    1         0.1235951084E-03      0.1987553899E-02
          0                 3           2             1    1     1      -0.5616883074E-03       1    5    1        -0.1112426262E-04      0.1791828374E-03
          0                 4           1             1    1     1       0.4197891217E-04       1    3    1         0.8910443121E-06      0.1479637491E-04
          0                 5           1             3    1     1      -0.2620046023E-05       9    4    1         0.6479796966E-07      0.1060795953E-05
          0                 6           1             1    1     1       0.1385856809E-06       9    4    1        -0.5481755494E-08      0.6652111600E-07

    ------------------------------------------------
       NWT REQUIRED            6 OUTER ITERATIONS 
       AND A TOTAL OF         10 INNER ITERATIONS.
    ------------------------------------------------

 NO OUTPUT CONTROL FOR STRESS PERIOD   38   TIME STEP   27
 
 WELLS WITH REDUCED PUMPING FOR STRESS PERIOD    38 TIME STEP    27
   LAY   ROW   COL         APPL.Q          ACT.Q        GW-HEAD       CELL-BOT
     1     3    50  -0.115000E+01  -0.334559E+00   0.399492E-03   0.000000E+00
     1     5    55  -0.115000E+01  -0.250951E+00   0.334951E-03   0.000000E+00
 
 
 SOLVING FOR HEAD 
                                                   Max.-Head-Change                         Max.-Flux-Residual
  Residual-Control   Outer-Iter.   Inner-Iter.     Column Row Layer    Maximum-Head-Change  Column Row Layer    Maximum-Flux-Residual          L2-NORM 
          0                 1           3             1    1     1      -0.7752815234E-01       1    5    1        -0.1235187817E-02      0.2044151166E-01
          0                 2           2             1    1     1       0.7298790944E-02       1    5    1         0.1235113541E-03      0.1986328185E-02
          0                 3           2             1    1     1      -0.6163403164E-03       1    5    1        -0.1111678932E-04      0.1790467958E-03
          0                 4           1             3    1     1       0.4596922140E-04       1    5    1         0.8904447739E-06      0.1478445973E-04
          0                 5           1             3    1     1      -0.2822555856E-05       9    4    1         0.6566144961E-07      0.1050790887E-05
          0                 6           1             3    1     1       0.1460700379E-06       9    4    1        -0.5549484428E-08      0.6545465823E-07

    ------------------------------------------------
       NWT REQUIRED            6 OUTER ITERATIONS 
       AND A TOTAL OF         10 INNER ITERATIONS.
    ------------------------------------------------

 NO OUTPUT CONTROL FOR STRESS PERIOD   38   TIME STEP   28
 
 WELLS WITH REDUCED PUMPING FOR STRESS PERIOD    38 TIME STEP    28
   LAY   ROW   COL         APPL.Q          ACT.Q        GW-HEAD       CELL-BOT
     1     3    50  -0.114998E+01  -0.333900E+00   0.399030E-03   0.000000E+00
     1     5    55  -0.114998E+01  -0.250427E+00   0.334554E-03   0.000000E+00
 
 
 SOLVING FOR HEAD 
                                                   Max.-Head-Change                         Max.-Flux-Residual
  Residual-Control   Outer-Iter.   Inner-Iter.     Column Row Layer    Maximum-Head-Change  Column Row Layer    Maximum-Flux-Residual          L2-NORM 
          0                 1           3             1    1     1      -0.8522110786E-01       1    5    1        -0.1234101798E-02      0.2048040141E-01
          0                 2           2             1    1     1       0.8017986747E-02       1    5    1         0.1234026439E-03      0.1989939972E-02
          0                 3           2             1    1     1      -0.6764476910E-03       1    5    1        -0.1110707079E-04      0.1792869940E-03
          0                 4           1             1    1     1       0.5032840680E-04       4    3    1         0.8897665928E-06      0.1479751403E-04
          0                 5           1             3    1     1      -0.3022305376E-05       9    4    1         0.6753820259E-07      0.1040120495E-05
          0                 6           1             1    1     1       0.1523855900E-06       9    4    1        -0.5678781889E-08      0.6430005777E-07

    ------------------------------------------------
       NWT REQUIRED            6 OUTER ITERATIONS 
       AND A TOTAL OF         10 INNER ITERATIONS.
    ------------------------------------------------

 NO OUTPUT CONTROL FOR STRESS PERIOD   38   TIME STEP   29
 
 WELLS WITH REDUCED PUMPING FOR STRESS PERIOD    38 TIME STEP    29
   LAY   ROW   COL         APPL.Q          ACT.Q        GW-HEAD       CELL-BOT
     1     3    50  -0.115001E+01  -0.333179E+00   0.398513E-03   0.000000E+00
     1     5    55  -0.115001E+01  -0.249852E+00   0.334109E-03   0.000000E+00
 
 
 SOLVING FOR HEAD 
                                                   Max.-Head-Change                         Max.-Flux-Residual
  Residual-Control   Outer-Iter.   Inner-Iter.     Column Row Layer    Maximum-Head-Change  Column Row Layer    Maximum-Flux-Residual          L2-NORM 
          0                 1           3             1    1     1      -0.9363506095E-01       1    5    1        -0.1233411179E-02      0.2039285985E-01
          0                 2           2             1    1     1       0.8808246759E-02       1    5    1         0.1233321034E-03      0.1983943303E-02
          0                 3           2             1    1     1      -0.7427785341E-03       1    5    1        -0.1110079883E-04      0.1789088887E-03
          0                 4           1             1    1     1       0.5514456909E-04       4    3    1         0.8901740038E-06      0.1477626583E-04
          0                 5           1             3    1     1      -0.3224732961E-05       9    4    1         0.6906912020E-07      0.1025830538E-05
          0                 6           1             1    1     1       0.1574034739E-06       9    4    1        -0.5776890077E-08      0.6298262949E-07

    ------------------------------------------------
       NWT REQUIRED            6 OUTER ITERATIONS 
       AND A TOTAL OF         10 INNER ITERATIONS.
    ------------------------------------------------

 NO OUTPUT CONTROL FOR STRESS PERIOD   38   TIME STEP   30
 
 WELLS WITH REDUCED PUMPING FOR STRESS PERIOD    38 TIME STEP    30
   LAY   ROW   COL         APPL.Q          ACT.Q        GW-HEAD       CELL-BOT
     1     3    50  -0.115005E+01  -0.332389E+00   0.397946E-03   0.000000E+00
     1     5    55  -0.115005E+01  -0.249224E+00   0.333623E-03   0.000000E+00
 



 STREAM LISTING     PERIOD     38   STEP       30

 LAYER ROW COL. STREAM  RCH.   FLOW INTO    STREAM     FLOW OUT OF   OVRLND.    DIRECT     STREAM      STREAM      STREAM     STREAM  STREAMBED   FLOW TO   CHNG. UNSAT. 
                SEG.NO.  NO.   STRM. RCH.    LOSS       STRM. RCH.   RUNOFF     PRECIP       ET         HEAD        DEPTH      WIDTH  CONDCTNC.   WAT. TAB.

   1    4    1     1     1    3.7300E+00  1.3771E-03   3.7286E+00  0.000E+00  0.000E+00  0.000E+00  1.41299E+02  1.449E+00  3.546E+00  7.065E-04  1.360E-04  1.241E-03
   1    4    2     1     2    3.7286E+00  1.3767E-03   3.7272E+00  0.000E+00  0.000E+00  0.000E+00  1.40999E+02  1.449E+00  3.546E+00  7.064E-04  1.345E-04  1.242E-03
   1    4    3     1     3    3.7272E+00  1.3764E-03   3.7259E+00  0.000E+00  0.000E+00  0.000E+00  1.40699E+02  1.449E+00  3.546E+00  7.063E-04  1.333E-04  1.243E-03
   1    4    4     1     4    3.7259E+00  1.3760E-03   3.7245E+00  0.000E+00  0.000E+00  0.000E+00  1.40398E+02  1.448E+00  3.545E+00  7.062E-04  1.324E-04  1.244E-03
   1    4    5     1     5    3.7245E+00  1.3756E-03   3.7231E+00  0.000E+00  0.000E+00  0.000E+00  1.40098E+02  1.448E+00  3.545E+00  7.062E-04  1.317E-04  1.244E-03
   1    4    6     1     6    3.7231E+00  1.3752E-03   3.7217E+00  0.000E+00  0.000E+00  0.000E+00  1.39798E+02  1.448E+00  3.545E+00  7.061E-04  1.313E-04  1.244E-03
   1    4    7     1     7    3.7217E+00  1.3749E-03   3.7204E+00  0.000E+00  0.000E+00  0.000E+00  1.39497E+02  1.447E+00  3.544E+00  7.060E-04  1.312E-04  1.244E-03
   1    4    8     1     8    3.7204E+00  1.3745E-03   3.7190E+00  0.000E+00  0.000E+00  0.000E+00  1.39197E+02  1.447E+00  3.544E+00  7.059E-04  1.313E-04  1.243E-03
   1    4    9     1     9    3.7190E+00  1.3741E-03   3.7176E+00  0.000E+00  0.000E+00  0.000E+00  1.38897E+02  1.447E+00  3.544E+00  7.058E-04  1.318E-04  1.242E-03
   1    4   10     1    10    3.7176E+00  1.3737E-03   3.7162E+00  0.000E+00  0.000E+00  0.000E+00  1.38597E+02  1.447E+00  3.543E+00  7.057E-04  1.325E-04  1.241E-03
   1    4   11     1    11    3.7162E+00  1.3734E-03   3.7149E+00  0.000E+00  0.000E+00  0.000E+00  1.38296E+02  1.446E+00  3.543E+00  7.056E-04  1.334E-04  1.240E-03
   1    4   12     1    12    3.7149E+00  1.3730E-03   3.7135E+00  0.000E+00  0.000E+00  0.000E+00  1.37996E+02  1.446E+00  3.543E+00  7.055E-04  1.347E-04  1.238E-03
   1    4   13     1    13    3.7135E+00  1.3726E-03   3.7121E+00  0.000E+00  0.000E+00  0.000E+00  1.37696E+02  1.446E+00  3.542E+00  7.054E-04  1.359E-04  1.237E-03
   1    4   14     1    14    3.7121E+00  1.3723E-03   3.7108E+00  0.000E+00  0.000E+00  0.000E+00  1.37396E+02  1.446E+00  3.542E+00  7.053E-04  1.358E-04  1.236E-03
   1    4   15     1    15    3.7108E+00  1.3719E-03   3.7094E+00  0.000E+00  0.000E+00  0.000E+00  1.37095E+02  1.445E+00  3.542E+00  7.052E-04  1.357E-04  1.236E-03
   1    4   16     1    16    3.7094E+00  1.3715E-03   3.7080E+00  0.000E+00  0.000E+00  0.000E+00  1.36795E+02  1.445E+00  3.541E+00  7.052E-04  1.365E-04  1.235E-03
   1    4   17     1    17    3.7080E+00  1.3711E-03   3.7066E+00  0.000E+00  0.000E+00  0.000E+00  1.36495E+02  1.445E+00  3.541E+00  7.051E-04  1.388E-04  1.232E-03
   1    4   18     1    18    3.7066E+00  1.3708E-03   3.7053E+00  0.000E+00  0.000E+00  0.000E+00  1.36194E+02  1.444E+00  3.541E+00  7.050E-04  1.414E-04  1.229E-03
   1    4   19     1    19    3.7053E+00  1.3704E-03   3.7039E+00  0.000E+00  0.000E+00  0.000E+00  1.35894E+02  1.444E+00  3.540E+00  7.049E-04  1.443E-04  1.226E-03
   1    4   20     1    20    3.7039E+00  1.3700E-03   3.7025E+00  0.000E+00  0.000E+00  0.000E+00  1.35594E+02  1.444E+00  3.540E+00  7.048E-04  1.445E-04  1.226E-03
   1    4   21     1    21    3.7025E+00  1.3697E-03   3.7012E+00  0.000E+00  0.000E+00  0.000E+00  1.35294E+02  1.444E+00  3.540E+00  7.047E-04  1.474E-04  1.222E-03
   1    4   22     1    22    3.7012E+00  1.3693E-03   3.6998E+00  0.000E+00  0.000E+00  0.000E+00  1.34993E+02  1.443E+00  3.539E+00  7.046E-04  1.505E-04  1.219E-03
   1    4   23     1    23    3.6998E+00  1.3689E-03   3.6984E+00  0.000E+00  0.000E+00  0.000E+00  1.34693E+02  1.443E+00  3.539E+00  7.045E-04  1.531E-04  1.216E-03
   1    4   24     1    24    3.6984E+00  1.3685E-03   3.6971E+00  0.000E+00  0.000E+00  0.000E+00  1.34393E+02  1.443E+00  3.539E+00  7.044E-04  1.561E-04  1.212E-03
   1    4   25     1    25    3.6971E+00  1.3682E-03   3.6957E+00  0.000E+00  0.000E+00  0.000E+00  1.34092E+02  1.442E+00  3.538E+00  7.043E-04  1.600E-04  1.208E-03
   1    4   26     1    26    3.6957E+00  1.3678E-03   3.6943E+00  0.000E+00  0.000E+00  0.000E+00  1.33792E+02  1.442E+00  3.538E+00  7.043E-04  1.631E-04  1.205E-03
   1    4   27     1    27    3.6943E+00  1.3674E-03   3.6929E+00  0.000E+00  0.000E+00  0.000E+00  1.33492E+02  1.442E+00  3.538E+00  7.042E-04  1.665E-04  1.201E-03
   1    4   28     1    28    3.6929E+00  1.3671E-03   3.6916E+00  0.000E+00  0.000E+00  0.000E+00  1.33192E+02  1.442E+00  3.537E+00  7.041E-04  1.678E-04  1.199E-03
   1    4   29     1    29    3.6916E+00  1.3667E-03   3.6902E+00  0.000E+00  0.000E+00  0.000E+00  1.32891E+02  1.441E+00  3.537E+00  7.040E-04  1.684E-04  1.198E-03
   1    4   30     1    30    3.6902E+00  1.3663E-03   3.6888E+00  0.000E+00  0.000E+00  0.000E+00  1.32591E+02  1.441E+00  3.537E+00  7.039E-04  1.687E-04  1.198E-03
   1    4   31     1    31    3.6888E+00  1.3659E-03   3.6875E+00  0.000E+00  0.000E+00  0.000E+00  1.32291E+02  1.441E+00  3.536E+00  7.038E-04  1.692E-04  1.197E-03
   1    4   32     1    32    3.6875E+00  1.3656E-03   3.6861E+00  0.000E+00  0.000E+00  0.000E+00  1.31991E+02  1.441E+00  3.536E+00  7.037E-04  1.696E-04  1.196E-03
   1    4   33     1    33    3.6861E+00  1.3652E-03   3.6848E+00  0.000E+00  0.000E+00  0.000E+00  1.31690E+02  1.440E+00  3.536E+00  7.036E-04  1.701E-04  1.195E-03
   1    4   34     1    34    3.6848E+00  1.3648E-03   3.6834E+00  0.000E+00  0.000E+00  0.000E+00  1.31390E+02  1.440E+00  3.535E+00  7.035E-04  1.707E-04  1.194E-03
   1    4   35     1    35    3.6834E+00  1.3645E-03   3.6820E+00  0.000E+00  0.000E+00  0.000E+00  1.31090E+02  1.440E+00  3.535E+00  7.034E-04  1.713E-04  1.193E-03
   1    4   36     1    36    3.6820E+00  1.3641E-03   3.6807E+00  0.000E+00  0.000E+00  0.000E+00  1.30789E+02  1.439E+00  3.535E+00  7.033E-04  1.720E-04  1.192E-03
   1    4   37     1    37    3.6807E+00  1.3637E-03   3.6793E+00  0.000E+00  0.000E+00  0.000E+00  1.30489E+02  1.439E+00  3.534E+00  7.033E-04  1.728E-04  1.191E-03
   1    4   38     1    38    3.6793E+00  1.3634E-03   3.6779E+00  0.000E+00  0.000E+00  0.000E+00  1.30189E+02  1.439E+00  3.534E+00  7.032E-04  1.737E-04  1.190E-03
   1    4   39     1    39    3.6779E+00  1.3630E-03   3.6766E+00  0.000E+00  0.000E+00  0.000E+00  1.29889E+02  1.439E+00  3.534E+00  7.031E-04  1.746E-04  1.188E-03
   1    4   40     1    40    3.6766E+00  1.3626E-03   3.6752E+00  0.000E+00  0.000E+00  0.000E+00  1.29588E+02  1.438E+00  3.533E+00  7.030E-04  1.756E-04  1.187E-03
   1    4   41     1    41    3.6752E+00  1.3622E-03   3.6738E+00  0.000E+00  0.000E+00  0.000E+00  1.29288E+02  1.438E+00  3.533E+00  7.029E-04  1.768E-04  1.185E-03
   1    4   42     1    42    3.6738E+00  1.3619E-03   3.6725E+00  0.000E+00  0.000E+00  0.000E+00  1.28988E+02  1.438E+00  3.533E+00  7.028E-04  1.880E-04  1.174E-03
   1    4   43     1    43    3.6725E+00  1.3615E-03   3.6711E+00  0.000E+00  0.000E+00  0.000E+00  1.28687E+02  1.437E+00  3.532E+00  7.027E-04  2.069E-04  1.155E-03
   1    4   44     1    44    3.6711E+00  1.3611E-03   3.6698E+00  0.000E+00  0.000E+00  0.000E+00  1.28387E+02  1.437E+00  3.532E+00  7.026E-04  2.086E-04  1.153E-03
   1    4   45     1    45    3.6698E+00  1.3608E-03   3.6684E+00  0.000E+00  0.000E+00  0.000E+00  1.28087E+02  1.437E+00  3.532E+00  7.025E-04  2.238E-04  1.137E-03
   1    4   46     1    46    3.6684E+00  1.3604E-03   3.6670E+00  0.000E+00  0.000E+00  0.000E+00  1.27787E+02  1.437E+00  3.531E+00  7.024E-04  2.631E-04  1.097E-03
   1    4   47     1    47    3.6670E+00  1.3600E-03   3.6657E+00  0.000E+00  0.000E+00  0.000E+00  1.27486E+02  1.436E+00  3.531E+00  7.024E-04  2.607E-04  1.099E-03
   1    4   48     1    48    3.6657E+00  1.3597E-03   3.6643E+00  0.000E+00  0.000E+00  0.000E+00  1.27186E+02  1.436E+00  3.531E+00  7.023E-04  2.780E-04  1.082E-03
   1    4   49     1    49    3.6643E+00  1.3593E-03   3.6630E+00  0.000E+00  0.000E+00  0.000E+00  1.26886E+02  1.436E+00  3.530E+00  7.022E-04  3.388E-04  1.020E-03
   1    4   50     1    50    3.6630E+00  1.3589E-03   3.6616E+00  0.000E+00  0.000E+00  0.000E+00  1.26586E+02  1.436E+00  3.530E+00  7.021E-04  3.696E-04  9.893E-04
   1    4   51     1    51    3.6616E+00  1.3585E-03   3.6602E+00  0.000E+00  0.000E+00  0.000E+00  1.26285E+02  1.435E+00  3.530E+00  7.020E-04  3.674E-04  9.911E-04
   1    4   52     1    52    3.6602E+00  1.3582E-03   3.6589E+00  0.000E+00  0.000E+00  0.000E+00  1.25985E+02  1.435E+00  3.529E+00  7.019E-04  3.665E-04  9.917E-04
   1    4   53     1    53    3.6589E+00  1.3578E-03   3.6575E+00  0.000E+00  0.000E+00  0.000E+00  1.25685E+02  1.435E+00  3.529E+00  7.018E-04  3.662E-04  9.916E-04
   1    4   54     1    54    3.6575E+00  1.3574E-03   3.6562E+00  0.000E+00  0.000E+00  0.000E+00  1.25384E+02  1.434E+00  3.529E+00  7.017E-04  3.667E-04  9.907E-04
   1    4   55     1    55    3.6562E+00  1.3571E-03   3.6548E+00  0.000E+00  0.000E+00  0.000E+00  1.25084E+02  1.434E+00  3.528E+00  7.016E-04  3.684E-04  9.887E-04
   1    4   56     1    56    3.6548E+00  1.3567E-03   3.6535E+00  0.000E+00  0.000E+00  0.000E+00  1.24784E+02  1.434E+00  3.528E+00  7.015E-04  3.377E-04  1.019E-03
   1    4   57     1    57    3.6535E+00  1.3563E-03   3.6521E+00  0.000E+00  0.000E+00  0.000E+00  1.24484E+02  1.434E+00  3.528E+00  7.015E-04  2.798E-04  1.077E-03
   1    4   58     1    58    3.6521E+00  1.3560E-03   3.6507E+00  0.000E+00  0.000E+00  0.000E+00  1.24183E+02  1.433E+00  3.527E+00  7.014E-04  2.673E-04  1.089E-03
   1    4   59     1    59    3.6507E+00  1.3556E-03   3.6494E+00  0.000E+00  0.000E+00  0.000E+00  1.23883E+02  1.433E+00  3.527E+00  7.013E-04  2.604E-04  1.095E-03
   1    4   60     1    60    3.6494E+00  1.3552E-03   3.6480E+00  0.000E+00  0.000E+00  0.000E+00  1.23583E+02  1.433E+00  3.527E+00  7.012E-04  2.589E-04  1.096E-03
   1    4   61     1    61    3.6480E+00  1.3549E-03   3.6467E+00  0.000E+00  0.000E+00  0.000E+00  1.23283E+02  1.433E+00  3.526E+00  7.011E-04  2.071E-04  1.148E-03
   1    4   62     1    62    3.6467E+00  1.3545E-03   3.6453E+00  0.000E+00  0.000E+00  0.000E+00  1.22982E+02  1.432E+00  3.526E+00  7.010E-04  2.049E-04  1.150E-03
   1    4   63     1    63    3.6453E+00  1.3541E-03   3.6440E+00  0.000E+00  0.000E+00  0.000E+00  1.22682E+02  1.432E+00  3.526E+00  7.009E-04  2.033E-04  1.151E-03
   1    4   64     1    64    3.6440E+00  1.3538E-03   3.6426E+00  0.000E+00  0.000E+00  0.000E+00  1.22382E+02  1.432E+00  3.525E+00  7.008E-04  1.909E-04  1.163E-03
   1    4   65     1    65    3.6426E+00  1.3534E-03   3.6413E+00  0.000E+00  0.000E+00  0.000E+00  1.22081E+02  1.431E+00  3.525E+00  7.007E-04  1.730E-04  1.180E-03
   1    4   66     1    66    3.6413E+00  1.3530E-03   3.6399E+00  0.000E+00  0.000E+00  0.000E+00  1.21781E+02  1.431E+00  3.525E+00  7.006E-04  1.720E-04  1.181E-03
   1    4   67     1    67    3.6399E+00  1.3527E-03   3.6386E+00  0.000E+00  0.000E+00  0.000E+00  1.21481E+02  1.431E+00  3.524E+00  7.005E-04  1.711E-04  1.182E-03
   1    4   68     1    68    3.6386E+00  1.3523E-03   3.6372E+00  0.000E+00  0.000E+00  0.000E+00  1.21181E+02  1.431E+00  3.524E+00  7.005E-04  1.703E-04  1.182E-03
   1    4   69     1    69    3.6372E+00  1.3519E-03   3.6359E+00  0.000E+00  0.000E+00  0.000E+00  1.20880E+02  1.430E+00  3.524E+00  7.004E-04  1.697E-04  1.182E-03
   1    4   70     1    70    3.6359E+00  1.3516E-03   3.6345E+00  0.000E+00  0.000E+00  0.000E+00  1.20580E+02  1.430E+00  3.523E+00  7.003E-04  1.691E-04  1.182E-03
   1    4   71     1    71    3.6345E+00  1.3512E-03   3.6331E+00  0.000E+00  0.000E+00  0.000E+00  1.20280E+02  1.430E+00  3.523E+00  7.002E-04  1.687E-04  1.183E-03
   1    4   72     1    72    3.6331E+00  1.3508E-03   3.6318E+00  0.000E+00  0.000E+00  0.000E+00  1.19979E+02  1.429E+00  3.523E+00  7.001E-04  1.683E-04  1.182E-03
   1    4   73     1    73    3.6318E+00  1.3505E-03   3.6304E+00  0.000E+00  0.000E+00  0.000E+00  1.19679E+02  1.429E+00  3.522E+00  7.000E-04  1.681E-04  1.182E-03
   1    4   74     1    74    3.6304E+00  1.3501E-03   3.6291E+00  0.000E+00  0.000E+00  0.000E+00  1.19379E+02  1.429E+00  3.522E+00  6.999E-04  1.679E-04  1.182E-03
   1    4   75     1    75    3.6291E+00  1.3497E-03   3.6277E+00  0.000E+00  0.000E+00  0.000E+00  1.19079E+02  1.429E+00  3.522E+00  6.998E-04  1.679E-04  1.182E-03
   1    4   76     1    76    3.6277E+00  1.3494E-03   3.6264E+00  0.000E+00  0.000E+00  0.000E+00  1.18778E+02  1.428E+00  3.521E+00  6.997E-04  1.679E-04  1.181E-03
   1    4   77     1    77    3.6264E+00  1.3490E-03   3.6250E+00  0.000E+00  0.000E+00  0.000E+00  1.18478E+02  1.428E+00  3.521E+00  6.996E-04  1.680E-04  1.181E-03
   1    4   78     1    78    3.6250E+00  1.3486E-03   3.6237E+00  0.000E+00  0.000E+00  0.000E+00  1.18178E+02  1.428E+00  3.521E+00  6.996E-04  1.682E-04  1.180E-03
   1    4   79     1    79    3.6237E+00  1.3483E-03   3.6224E+00  0.000E+00  0.000E+00  0.000E+00  1.17878E+02  1.428E+00  3.520E+00  6.995E-04  1.660E-04  1.182E-03
   1    4   80     1    80    3.6224E+00  1.3479E-03   3.6210E+00  0.000E+00  0.000E+00  0.000E+00  1.17577E+02  1.427E+00  3.520E+00  6.994E-04  1.616E-04  1.186E-03
   1    4   81     1    81    3.6210E+00  1.3475E-03   3.6197E+00  0.000E+00  0.000E+00  0.000E+00  1.17277E+02  1.427E+00  3.520E+00  6.993E-04  1.576E-04  1.190E-03
   1    4   82     1    82    3.6197E+00  1.3472E-03   3.6183E+00  0.000E+00  0.000E+00  0.000E+00  1.16977E+02  1.427E+00  3.519E+00  6.992E-04  1.541E-04  1.193E-03
   1    4   83     1    83    3.6183E+00  1.3468E-03   3.6170E+00  0.000E+00  0.000E+00  0.000E+00  1.16676E+02  1.426E+00  3.519E+00  6.991E-04  1.509E-04  1.196E-03
   1    4   84     1    84    3.6170E+00  1.3464E-03   3.6156E+00  0.000E+00  0.000E+00  0.000E+00  1.16376E+02  1.426E+00  3.519E+00  6.990E-04  1.471E-04  1.199E-03
   1    4   85     1    85    3.6156E+00  1.3461E-03   3.6143E+00  0.000E+00  0.000E+00  0.000E+00  1.16076E+02  1.426E+00  3.518E+00  6.989E-04  1.462E-04  1.200E-03
   1    4   86     1    86    3.6143E+00  1.3457E-03   3.6129E+00  0.000E+00  0.000E+00  0.000E+00  1.15776E+02  1.426E+00  3.518E+00  6.988E-04  1.414E-04  1.204E-03
   1    4   87     1    87    3.6129E+00  1.3453E-03   3.6116E+00  0.000E+00  0.000E+00  0.000E+00  1.15475E+02  1.425E+00  3.518E+00  6.987E-04  1.407E-04  1.205E-03
   1    4   88     1    88    3.6116E+00  1.3450E-03   3.6102E+00  0.000E+00  0.000E+00  0.000E+00  1.15175E+02  1.425E+00  3.517E+00  6.987E-04  2.850E-04  1.060E-03
   1    4   89     1    89    3.6102E+00  1.3446E-03   3.6089E+00  0.000E+00  0.000E+00  0.000E+00  1.14875E+02  1.425E+00  3.517E+00  6.986E-04  5.425E-04  8.021E-04
   1    4   90     1    90    3.6089E+00  1.3442E-03   3.6075E+00  0.000E+00  0.000E+00  0.000E+00  1.14575E+02  1.425E+00  3.517E+00  6.985E-04  7.915E-04  5.527E-04
   1    4   91     1    91    3.6075E+00  1.3439E-03   3.6062E+00  0.000E+00  0.000E+00  0.000E+00  1.14274E+02  1.424E+00  3.516E+00  6.984E-04  1.038E-03  3.063E-04
   1    4   92     1    92    3.6062E+00  1.3435E-03   3.6049E+00  0.000E+00  0.000E+00  0.000E+00  1.13974E+02  1.424E+00  3.516E+00  6.983E-04  1.284E-03  5.905E-05
   1    4   93     1    93    3.6049E+00  1.3431E-03   3.6035E+00  0.000E+00  0.000E+00  0.000E+00  1.13674E+02  1.424E+00  3.516E+00  6.982E-04  1.367E-03 -2.347E-05
   1    4   94     1    94    3.6035E+00  1.3428E-03   3.6022E+00  0.000E+00  0.000E+00  0.000E+00  1.13373E+02  1.423E+00  3.516E+00  6.981E-04  1.368E-03 -2.480E-05
   1    4   95     1    95    3.6022E+00  1.3424E-03   3.6008E+00  0.000E+00  0.000E+00  0.000E+00  1.13073E+02  1.423E+00  3.515E+00  6.980E-04  1.368E-03 -2.570E-05
   1    4   96     1    96    3.6008E+00  1.3420E-03   3.5995E+00  0.000E+00  0.000E+00  0.000E+00  1.12773E+02  1.423E+00  3.515E+00  6.979E-04  1.368E-03 -2.621E-05
   1    4   97     1    97    3.5995E+00  1.3417E-03   3.5981E+00  0.000E+00  0.000E+00  0.000E+00  1.12473E+02  1.423E+00  3.515E+00  6.978E-04  1.368E-03 -2.629E-05
   1    4   98     1    98    3.5981E+00  1.3413E-03   3.5968E+00  0.000E+00  0.000E+00  0.000E+00  1.12172E+02  1.422E+00  3.514E+00  6.978E-04  1.368E-03 -2.646E-05
   1    4   99     1    99    3.5968E+00  1.3409E-03   3.5955E+00  0.000E+00  0.000E+00  0.000E+00  1.11872E+02  1.422E+00  3.514E+00  6.977E-04  1.367E-03 -2.599E-05
   1    4  100     1   100    3.5955E+00  1.3406E-03   3.5941E+00  0.000E+00  0.000E+00  0.000E+00  1.11572E+02  1.422E+00  3.514E+00  6.976E-04  1.365E-03 -2.473E-05



1
  VOLUMETRIC BUDGET FOR UNSATURATED ZONE BENEATH STREAMS AT END OF TIME STEP    30 STRESS PERIOD  38
  ------------------------------------------------------------------------------------------------

    CUMULATIVE VOLUMES             L**3    RATES FOR THIS TIME STEP         L**3/T
    ------------------                     ------------------------


          STREAM LOSS =     30638162.0000            STREAM LOSS =            0.1359
    CHANGE IN STORAGE =      1207147.8750      CHANGE IN STORAGE =            0.1047
       RECHARGE TO GW =     29438344.0000         RECHARGE TO GW =        3.1204E-02

             TOTAL IN =     30638162.0000               TOTAL IN =            0.1359

            TOTAL OUT =     30645492.0000              TOTAL OUT =            0.1359

             IN - OUT =        -7330.0000               IN - OUT =        4.1723E-07

  PERCENT DISCREPANCY =           -0.01      PERCENT DISCREPANCY =             0.00



1
  VOLUMETRIC BUDGET FOR ENTIRE MODEL AT END OF TIME STEP   30, STRESS PERIOD  38
  ------------------------------------------------------------------------------

     CUMULATIVE VOLUMES      L**3       RATES FOR THIS TIME STEP      L**3/T
     ------------------                 ------------------------

           IN:                                      IN:
           ---                                      ---
             STORAGE     =   109885456.0000               STORAGE     =           0.4675
       CONSTANT HEAD     =           0.0000         CONSTANT HEAD     =           0.0000
               WELLS     =           0.0000                 WELLS     =           0.0000
     HEAD DEP BOUNDS     =     1502667.5000       HEAD DEP BOUNDS     =       8.3341E-02
      STREAM LEAKAGE     =    29437908.0000        STREAM LEAKAGE     =       3.1204E-02

                TOTAL IN =   140826032.0000                  TOTAL IN =           0.5820

          OUT:                                     OUT:
          ----                                     ----
             STORAGE     =     3027968.2500               STORAGE     =       4.1273E-04
       CONSTANT HEAD     =           0.0000         CONSTANT HEAD     =           0.0000
               WELLS     =   121438712.0000                 WELLS     =           0.5816
     HEAD DEP BOUNDS     =    16359348.0000       HEAD DEP BOUNDS     =           0.0000
      STREAM LEAKAGE     =           0.0000        STREAM LEAKAGE     =           0.0000

               TOTAL OUT =   140826032.0000                 TOTAL OUT =           0.5820

                IN - OUT =           0.0000                  IN - OUT =           0.0000

     PERCENT DISCREPANCY =           0.00         PERCENT DISCREPANCY =           0.00






         TIME SUMMARY AT END OF TIME STEP   30 IN STRESS PERIOD   38
                    SECONDS     MINUTES      HOURS       DAYS        YEARS
                    -----------------------------------------------------------
   TIME STEP LENGTH 2.49961E+05  4166.0      69.434      2.8931     7.92080E-03
 STRESS PERIOD TIME 2.59200E+06  43200.      720.00      30.000     8.21355E-02
         TOTAL TIME 9.84960E+07 1.64160E+06  27360.      1140.0      3.1212    
1
1
                            STRESS PERIOD NO.   39, LENGTH =   2592000.    
                            -----------------------------------------------

                              NUMBER OF TIME STEPS =    30

                               MULTIPLIER FOR DELT =     1.100

                            INITIAL TIME STEP SIZE =   15757.40    

 REUSING NON-PARAMETER WELLS FROM LAST STRESS PERIOD

      1 WELL 

 REUSING NON-PARAMETER GHB CELLS FROM LAST STRESS PERIOD

      7 GHB CELLS



 CLASSIFICATION & COUNT OF STREAM SEGMENTS BASED ON SOURCE OF INFLOW:

                HEADWATER     DIVERSION     RECEIVES TRIBUTARY FLOW
                ---------     ---------     -----------------------
                     1              0               0



                    INPUT DATA FOR EACH STREAM SEGMENT
 ---------------------------------------------------------------------------------------------

 SEGMENT    SEG.     INFLOW   OVERLAND   STREAM    STREAM   ICALC  OUTFLOW  DIVERSION PRIORITY
    NO.    LENGTH     RATE     RUNOFF      ET       PPT.    METH.  TO SEG.  FROM SEG.    NO.

      1  2.000E+04 3.000E+00 0.000E+00 0.000E+00 0.000E+00    2        0        0        0


         STREAMBED PROPERTIES AND STREAM DIMENSIONS

 SEGMENT     BED HYD. COND.      BED THICKNESS     ELEV.-TOP OF BED     WIDTH OF STREAM     DEPTH OF STREAM    STREAM ROUGHNESS
    No.     UPPER     LOWER     UPPER     LOWER     UPPER     LOWER     UPPER     LOWER     UPPER     LOWER   CHANNEL      BANK

     1  3.500E-07 3.500E-07                                                                                 3.000E-02 4.000E-02

  EIGHT POINT CROSS-SECTION DATA FOR SEGMENTS WITH ICALC = 2
    X VALUES X VALUES START FROM LEFT SIDE LOOKING DOWNSTREAM

     SEGMENT NO.        X1        X2        X3        X4        X5        X6        X7        X8
            1      0.000E+00 2.000E+00 4.000E+00 6.000E+00 8.000E+00 1.000E+01 1.200E+01 1.400E+01

    Z VALUES ARE RELATIVE TO STREAMBED ELEVATION

     SEGMENT NO.          Z1        Z2        Z3        Z4        Z5        Z6        Z7        Z8
            1      6.000E+00 4.500E+00 3.500E+00 0.000E+00 3.000E-01 3.500E+00 4.500E+00 6.000E+00



 
 SOLVING FOR HEAD 
                                                   Max.-Head-Change                         Max.-Flux-Residual
  Residual-Control   Outer-Iter.   Inner-Iter.     Column Row Layer    Maximum-Head-Change  Column Row Layer    Maximum-Flux-Residual          L2-NORM 
          0                 1           2             1    1     1      -0.5924572845E-02      50    3    1        -0.9543437941E-01      0.1209852959E+00
          0                 2           2             1    1     1       0.5807407267E-03      50    3    1         0.5711124636E-02      0.7126563557E-02
          0                 3           1             1    1     1      -0.5131413655E-04      50    3    1        -0.5330720770E-03      0.6632511802E-03
          0                 4           1             1    1     1       0.4041484924E-05      50    3    1         0.4253964557E-04      0.5298050210E-04
          0                 5           1             1    1     1      -0.2797625134E-06      50    3    1        -0.2991491695E-05      0.3729490756E-05

    ------------------------------------------------
       NWT REQUIRED            5 OUTER ITERATIONS 
       AND A TOTAL OF          7 INNER ITERATIONS.
    ------------------------------------------------

 NO OUTPUT CONTROL FOR STRESS PERIOD   39   TIME STEP    1
 
 WELLS WITH REDUCED PUMPING FOR STRESS PERIOD    39 TIME STEP     1
   LAY   ROW   COL         APPL.Q          ACT.Q        GW-HEAD       CELL-BOT
     1     3    50  -0.148024E+01  -0.332345E+00   0.343526E-03   0.000000E+00
     1     5    55  -0.148024E+01  -0.249188E+00   0.289268E-03   0.000000E+00
 
 
 SOLVING FOR HEAD 
                                                   Max.-Head-Change                         Max.-Flux-Residual
  Residual-Control   Outer-Iter.   Inner-Iter.     Column Row Layer    Maximum-Head-Change  Column Row Layer    Maximum-Flux-Residual          L2-NORM 
          0                 1           2             1    1     1      -0.6516901949E-02       1    3    1        -0.1233140180E-02      0.2017928806E-01
          0                 2           2             1    1     1       0.6379835944E-03       1    3    1         0.1233132668E-03      0.1962364707E-02
          0                 3           1             1    1     1      -0.5630231582E-04       1    3    1        -0.1109825678E-04      0.1762594028E-03
          0                 4           1             1    1     1       0.4429148052E-05       1    3    1         0.8889700318E-06      0.1427544161E-04
          0                 5           1             1    1     1      -0.3062651670E-06       1    5    1        -0.6249373996E-07      0.1019250730E-05

    ------------------------------------------------
       NWT REQUIRED            5 OUTER ITERATIONS 
       AND A TOTAL OF          7 INNER ITERATIONS.
    ------------------------------------------------

 NO OUTPUT CONTROL FOR STRESS PERIOD   39   TIME STEP    2
 
 WELLS WITH REDUCED PUMPING FOR STRESS PERIOD    39 TIME STEP     2
   LAY   ROW   COL         APPL.Q          ACT.Q        GW-HEAD       CELL-BOT
     1     3    50  -0.148024E+01  -0.332287E+00   0.343491E-03   0.000000E+00
     1     5    55  -0.148024E+01  -0.249142E+00   0.289238E-03   0.000000E+00
 
 
 SOLVING FOR HEAD 
                                                   Max.-Head-Change                         Max.-Flux-Residual
  Residual-Control   Outer-Iter.   Inner-Iter.     Column Row Layer    Maximum-Head-Change  Column Row Layer    Maximum-Flux-Residual          L2-NORM 
          0                 1           2             1    1     1      -0.7168028944E-02       1    3    1        -0.1232998793E-02      0.2016531996E-01
          0                 2           2             1    1     1       0.7007642031E-03       1    3    1         0.1232990337E-03      0.1960737021E-02
          0                 3           1             1    1     1      -0.6175959717E-04       1    3    1        -0.1109698312E-04      0.1761321164E-03
          0                 4           1             1    1     1       0.4852171877E-05       1    3    1         0.8888679375E-06      0.1427660933E-04
          0                 5           1             1    1     1      -0.3351082424E-06       1    5    1        -0.6248655282E-07      0.1020778443E-05

    ------------------------------------------------
       NWT REQUIRED            5 OUTER ITERATIONS 
       AND A TOTAL OF          7 INNER ITERATIONS.
    ------------------------------------------------

 NO OUTPUT CONTROL FOR STRESS PERIOD   39   TIME STEP    3
 
 WELLS WITH REDUCED PUMPING FOR STRESS PERIOD    39 TIME STEP     3
   LAY   ROW   COL         APPL.Q          ACT.Q        GW-HEAD       CELL-BOT
     1     3    50  -0.147981E+01  -0.332227E+00   0.343514E-03   0.000000E+00
     1     5    55  -0.147981E+01  -0.249095E+00   0.289254E-03   0.000000E+00
 
 
 SOLVING FOR HEAD 
                                                   Max.-Head-Change                         Max.-Flux-Residual
  Residual-Control   Outer-Iter.   Inner-Iter.     Column Row Layer    Maximum-Head-Change  Column Row Layer    Maximum-Flux-Residual          L2-NORM 
          0                 1           2             1    1     1      -0.7883606435E-02       1    3    1        -0.1232643502E-02      0.2014234031E-01
          0                 2           2             1    1     1       0.7696032739E-03       1    3    1         0.1232634227E-03      0.1958547656E-02
          0                 3           1             1    1     1      -0.6772871279E-04       1    3    1        -0.1109378600E-04      0.1759771587E-03
          0                 4           1             1    1     1       0.5313633402E-05       1    3    1         0.8886117620E-06      0.1427693878E-04
          0                 5           1             1    1     1      -0.3664834701E-06       1    3    1        -0.6246853701E-07      0.1022354995E-05

    ------------------------------------------------
       NWT REQUIRED            5 OUTER ITERATIONS 
       AND A TOTAL OF          7 INNER ITERATIONS.
    ------------------------------------------------

 NO OUTPUT CONTROL FOR STRESS PERIOD   39   TIME STEP    4
 
 WELLS WITH REDUCED PUMPING FOR STRESS PERIOD    39 TIME STEP     4
   LAY   ROW   COL         APPL.Q          ACT.Q        GW-HEAD       CELL-BOT
     1     3    50  -0.148020E+01  -0.332161E+00   0.343422E-03   0.000000E+00
     1     5    55  -0.148020E+01  -0.249042E+00   0.289177E-03   0.000000E+00
 
 
 SOLVING FOR HEAD 
                                                   Max.-Head-Change                         Max.-Flux-Residual
  Residual-Control   Outer-Iter.   Inner-Iter.     Column Row Layer    Maximum-Head-Change  Column Row Layer    Maximum-Flux-Residual          L2-NORM 
          0                 1           2             1    1     1      -0.8670017457E-02       1    3    1        -0.1232306407E-02      0.2014141139E-01
          0                 2           2             1    1     1       0.8450871368E-03       1    3    1         0.1232296268E-03      0.1958491322E-02
          0                 3           1             1    1     1      -0.7425763882E-04       1    3    1        -0.1109075298E-04      0.1759919123E-03
          0                 4           1             1    1     1       0.5816978694E-05       1    3    1         0.8883686995E-06      0.1428893389E-04
          0                 5           1             1    1     1      -0.4006045858E-06       1    3    1        -0.6245146977E-07      0.1024671628E-05

    ------------------------------------------------
       NWT REQUIRED            5 OUTER ITERATIONS 
       AND A TOTAL OF          7 INNER ITERATIONS.
    ------------------------------------------------

 NO OUTPUT CONTROL FOR STRESS PERIOD   39   TIME STEP    5
 
 WELLS WITH REDUCED PUMPING FOR STRESS PERIOD    39 TIME STEP     5
   LAY   ROW   COL         APPL.Q          ACT.Q        GW-HEAD       CELL-BOT
     1     3    50  -0.148010E+01  -0.332088E+00   0.343392E-03   0.000000E+00
     1     5    55  -0.148010E+01  -0.248985E+00   0.289151E-03   0.000000E+00
 
 
 SOLVING FOR HEAD 
                                                   Max.-Head-Change                         Max.-Flux-Residual
  Residual-Control   Outer-Iter.   Inner-Iter.     Column Row Layer    Maximum-Head-Change  Column Row Layer    Maximum-Flux-Residual          L2-NORM 
          0                 1           2             1    1     1      -0.9534345572E-02       1    3    1        -0.1232005660E-02      0.2011663780E-01
          0                 2           2             1    1     1       0.9278663486E-03       1    3    1         0.1231994573E-03      0.1956088831E-02
          0                 3           1             1    1     1      -0.8139957873E-04       1    3    1        -0.1108804716E-04      0.1758133813E-03
          0                 4           1             1    1     1       0.6366022145E-05       1    3    1         0.8881518525E-06      0.1428739243E-04
          0                 5           1             1    1     1      -0.4377076166E-06       1    5    1        -0.6243623218E-07      0.1026205052E-05

    ------------------------------------------------
       NWT REQUIRED            5 OUTER ITERATIONS 
       AND A TOTAL OF          7 INNER ITERATIONS.
    ------------------------------------------------

 NO OUTPUT CONTROL FOR STRESS PERIOD   39   TIME STEP    6
 
 WELLS WITH REDUCED PUMPING FOR STRESS PERIOD    39 TIME STEP     6
   LAY   ROW   COL         APPL.Q          ACT.Q        GW-HEAD       CELL-BOT
     1     3    50  -0.147991E+01  -0.332007E+00   0.343370E-03   0.000000E+00
     1     5    55  -0.147991E+01  -0.248922E+00   0.289130E-03   0.000000E+00
 
 
 SOLVING FOR HEAD 
                                                   Max.-Head-Change                         Max.-Flux-Residual
  Residual-Control   Outer-Iter.   Inner-Iter.     Column Row Layer    Maximum-Head-Change  Column Row Layer    Maximum-Flux-Residual          L2-NORM 
          0                 1           2             1    1     1      -0.1048438318E-01       1    3    1        -0.1231724366E-02      0.2010094815E-01
          0                 2           2             1    1     1       0.1018656867E-02       1    3    1         0.1231712241E-03      0.1954815587E-02
          0                 3           1             1    1     1      -0.8921308852E-04       1    3    1        -0.1108551648E-04      0.1757452966E-03
          0                 4           1             1    1     1       0.6964955166E-05       1    5    1         0.8879490281E-06      0.1429458224E-04
          0                 5           1             1    1     1      -0.4780510922E-06       1    5    1        -0.6242196449E-07      0.1028337284E-05

    ------------------------------------------------
       NWT REQUIRED            5 OUTER ITERATIONS 
       AND A TOTAL OF          7 INNER ITERATIONS.
    ------------------------------------------------

 NO OUTPUT CONTROL FOR STRESS PERIOD   39   TIME STEP    7
 
 WELLS WITH REDUCED PUMPING FOR STRESS PERIOD    39 TIME STEP     7
   LAY   ROW   COL         APPL.Q          ACT.Q        GW-HEAD       CELL-BOT
     1     3    50  -0.147983E+01  -0.331919E+00   0.343329E-03   0.000000E+00
     1     5    55  -0.147983E+01  -0.248852E+00   0.289095E-03   0.000000E+00
 
 
 SOLVING FOR HEAD 
                                                   Max.-Head-Change                         Max.-Flux-Residual
  Residual-Control   Outer-Iter.   Inner-Iter.     Column Row Layer    Maximum-Head-Change  Column Row Layer    Maximum-Flux-Residual          L2-NORM 
          0                 1           2             1    1     1      -0.1152868028E-01       1    3    1        -0.1231445595E-02      0.2008793900E-01
          0                 2           2             1    1     1       0.1118244818E-02       1    3    1         0.1231432338E-03      0.1953373290E-02
          0                 3           1             1    1     1      -0.9776249257E-04       1    3    1        -0.1108300861E-04      0.1756274723E-03
          0                 4           1             1    1     1       0.7618375046E-05       1    3    1         0.8877480013E-06      0.1429602020E-04
          0                 5           1             1    1     1      -0.5219177780E-06       1    3    1        -0.6240783534E-07      0.1030048679E-05

    ------------------------------------------------
       NWT REQUIRED            5 OUTER ITERATIONS 
       AND A TOTAL OF          7 INNER ITERATIONS.
    ------------------------------------------------

 NO OUTPUT CONTROL FOR STRESS PERIOD   39   TIME STEP    8
 
 WELLS WITH REDUCED PUMPING FOR STRESS PERIOD    39 TIME STEP     8
   LAY   ROW   COL         APPL.Q          ACT.Q        GW-HEAD       CELL-BOT
     1     3    50  -0.147987E+01  -0.331823E+00   0.343266E-03   0.000000E+00
     1     5    55  -0.147987E+01  -0.248775E+00   0.289040E-03   0.000000E+00
 
 
 SOLVING FOR HEAD 
                                                   Max.-Head-Change                         Max.-Flux-Residual
  Residual-Control   Outer-Iter.   Inner-Iter.     Column Row Layer    Maximum-Head-Change  Column Row Layer    Maximum-Flux-Residual          L2-NORM 
          0                 1           2             1    1     1      -0.1266745337E-01       1    3    1        -0.1231156975E-02      0.1995356500E-01
          0                 2           2             1    1     1       0.1225767219E-02       1    3    1         0.1231140508E-03      0.1954012503E-02
          0                 3           1             1    1     1      -0.1069273382E-03       1    3    1        -0.1108039746E-04      0.1771062554E-03
          0                 4           1             1    1     1       0.8315552107E-05       7    4    1        -0.9900416416E-06      0.1451307347E-04
          0                 5           1             1    1     1      -0.5686069023E-06       7    4    1         0.8302355781E-07      0.1050218713E-05

    ------------------------------------------------
       NWT REQUIRED            5 OUTER ITERATIONS 
       AND A TOTAL OF          7 INNER ITERATIONS.
    ------------------------------------------------

 NO OUTPUT CONTROL FOR STRESS PERIOD   39   TIME STEP    9
 
 WELLS WITH REDUCED PUMPING FOR STRESS PERIOD    39 TIME STEP     9
   LAY   ROW   COL         APPL.Q          ACT.Q        GW-HEAD       CELL-BOT
     1     3    50  -0.147994E+01  -0.331717E+00   0.343194E-03   0.000000E+00
     1     5    55  -0.147994E+01  -0.248689E+00   0.288977E-03   0.000000E+00
 
 
 SOLVING FOR HEAD 
                                                   Max.-Head-Change                         Max.-Flux-Residual
  Residual-Control   Outer-Iter.   Inner-Iter.     Column Row Layer    Maximum-Head-Change  Column Row Layer    Maximum-Flux-Residual          L2-NORM 
          0                 1           2             1    1     1      -0.1341378361E-01       1    1    1        -0.1230035741E-02      0.1963396168E-01
          0                 2           2            15    7     1       0.1290004806E-02       1    1    1         0.1229955801E-03      0.1934786241E-02
          0                 3           2            16    7     1      -0.1124733460E-03       1    1    1        -0.1106973193E-04      0.1762525640E-03
          0                 4           1            16    7     1       0.8742088590E-05       3    4    1        -0.1104428744E-05      0.1449721655E-04
          0                 5           1            16    7     1      -0.5972294596E-06       3    4    1         0.8992539691E-07      0.1051572941E-05

    ------------------------------------------------
       NWT REQUIRED            5 OUTER ITERATIONS 
       AND A TOTAL OF          8 INNER ITERATIONS.
    ------------------------------------------------

 NO OUTPUT CONTROL FOR STRESS PERIOD   39   TIME STEP   10
 
 WELLS WITH REDUCED PUMPING FOR STRESS PERIOD    39 TIME STEP    10
   LAY   ROW   COL         APPL.Q          ACT.Q        GW-HEAD       CELL-BOT
     1     3    50  -0.147987E+01  -0.331595E+00   0.343130E-03   0.000000E+00
     1     5    55  -0.147987E+01  -0.248591E+00   0.288920E-03   0.000000E+00
 
 
 SOLVING FOR HEAD 
                                                   Max.-Head-Change                         Max.-Flux-Residual
  Residual-Control   Outer-Iter.   Inner-Iter.     Column Row Layer    Maximum-Head-Change  Column Row Layer    Maximum-Flux-Residual          L2-NORM 
          0                 1           2            17    7     1      -0.1446955690E-01       1    1    1        -0.1184774179E-02      0.1920710882E-01
          0                 2           2            18    7     1       0.1396397234E-02       1    1    1         0.1184644598E-03      0.1881694639E-02
          0                 3           2            18    7     1      -0.1215610327E-03       1    1    1        -0.1066197767E-04      0.1711510909E-03
          0                 4           1            18    7     1       0.9432475619E-05      14    4    1        -0.1050411250E-05      0.1410085323E-04
          0                 5           1            18    7     1      -0.6432316032E-06      15    4    1         0.8693262998E-07      0.1026149840E-05

    ------------------------------------------------
       NWT REQUIRED            5 OUTER ITERATIONS 
       AND A TOTAL OF          8 INNER ITERATIONS.
    ------------------------------------------------

 NO OUTPUT CONTROL FOR STRESS PERIOD   39   TIME STEP   11
 
 WELLS WITH REDUCED PUMPING FOR STRESS PERIOD    39 TIME STEP    11
   LAY   ROW   COL         APPL.Q          ACT.Q        GW-HEAD       CELL-BOT
     1     3    50  -0.148005E+01  -0.331463E+00   0.343029E-03   0.000000E+00
     1     5    55  -0.148005E+01  -0.248486E+00   0.288833E-03   0.000000E+00
 
 
 SOLVING FOR HEAD 
                                                   Max.-Head-Change                         Max.-Flux-Residual
  Residual-Control   Outer-Iter.   Inner-Iter.     Column Row Layer    Maximum-Head-Change  Column Row Layer    Maximum-Flux-Residual          L2-NORM 
          0                 1           2            19    7     1      -0.1568125435E-01      17    7    1        -0.1161510696E-02      0.1894890187E-01
          0                 2           2            20    7     1       0.1509930705E-02      17    7    1         0.1161392116E-03      0.1850728441E-02
          0                 3           2            20    7     1      -0.1312297729E-03      17    7    1        -0.1045270479E-04      0.1683621793E-03
          0                 4           1            20    7     1       0.1016515740E-04      17    4    1        -0.1055486667E-05      0.1390658342E-04
          0                 5           1            20    7     1      -0.6918854049E-06      17    4    1         0.8838365595E-07      0.1015692386E-05

    ------------------------------------------------
       NWT REQUIRED            5 OUTER ITERATIONS 
       AND A TOTAL OF          8 INNER ITERATIONS.
    ------------------------------------------------

 NO OUTPUT CONTROL FOR STRESS PERIOD   39   TIME STEP   12
 
 WELLS WITH REDUCED PUMPING FOR STRESS PERIOD    39 TIME STEP    12
   LAY   ROW   COL         APPL.Q          ACT.Q        GW-HEAD       CELL-BOT
     1     3    50  -0.148008E+01  -0.331320E+00   0.342940E-03   0.000000E+00
     1     5    55  -0.148008E+01  -0.248373E+00   0.288757E-03   0.000000E+00
 
 
 SOLVING FOR HEAD 
                                                   Max.-Head-Change                         Max.-Flux-Residual
  Residual-Control   Outer-Iter.   Inner-Iter.     Column Row Layer    Maximum-Head-Change  Column Row Layer    Maximum-Flux-Residual          L2-NORM 
          0                 1           2            21    7     1      -0.1700356587E-01      19    7    1        -0.1144538169E-02      0.1878677901E-01
          0                 2           2            21    7     1       0.1633486982E-02      19    7    1         0.1144417632E-03      0.1832730405E-02
          0                 3           2            21    7     1      -0.1414907725E-03      18    4    1         0.1060630354E-04      0.1668872576E-03
          0                 4           1            22    7     1       0.1093376891E-04      18    4    1        -0.1085112753E-05      0.1382152894E-04
          0                 5           1            22    7     1      -0.7427052153E-06      18    4    1         0.8977266219E-07      0.1012902144E-05

    ------------------------------------------------
       NWT REQUIRED            5 OUTER ITERATIONS 
       AND A TOTAL OF          8 INNER ITERATIONS.
    ------------------------------------------------

 NO OUTPUT CONTROL FOR STRESS PERIOD   39   TIME STEP   13
 
 WELLS WITH REDUCED PUMPING FOR STRESS PERIOD    39 TIME STEP    13
   LAY   ROW   COL         APPL.Q          ACT.Q        GW-HEAD       CELL-BOT
     1     3    50  -0.148008E+01  -0.331164E+00   0.342848E-03   0.000000E+00
     1     5    55  -0.148008E+01  -0.248249E+00   0.288676E-03   0.000000E+00
 
 
 SOLVING FOR HEAD 
                                                   Max.-Head-Change                         Max.-Flux-Residual
  Residual-Control   Outer-Iter.   Inner-Iter.     Column Row Layer    Maximum-Head-Change  Column Row Layer    Maximum-Flux-Residual          L2-NORM 
          0                 1           2            23    7     1      -0.1836957849E-01      21    7    1        -0.1128441244E-02      0.1865079302E-01
          0                 2           2            23    7     1       0.1766735158E-02      21    7    1         0.1128321697E-03      0.1819002730E-02
          0                 3           2            23    7     1      -0.1530868145E-03      20    4    1         0.1194308410E-04      0.1657469279E-03
          0                 4           1            23    7     1       0.1181898700E-04      20    4    1        -0.1186423335E-05      0.1375240192E-04
          0                 5           1            23    7     1      -0.8014431187E-06      20    4    1         0.9665536993E-07      0.1010414785E-05

    ------------------------------------------------
       NWT REQUIRED            5 OUTER ITERATIONS 
       AND A TOTAL OF          8 INNER ITERATIONS.
    ------------------------------------------------

 NO OUTPUT CONTROL FOR STRESS PERIOD   39   TIME STEP   14
 
 WELLS WITH REDUCED PUMPING FOR STRESS PERIOD    39 TIME STEP    14
   LAY   ROW   COL         APPL.Q          ACT.Q        GW-HEAD       CELL-BOT
     1     3    50  -0.148003E+01  -0.330994E+00   0.342753E-03   0.000000E+00
     1     5    55  -0.148003E+01  -0.248114E+00   0.288594E-03   0.000000E+00
 
 
 SOLVING FOR HEAD 
                                                   Max.-Head-Change                         Max.-Flux-Residual
  Residual-Control   Outer-Iter.   Inner-Iter.     Column Row Layer    Maximum-Head-Change  Column Row Layer    Maximum-Flux-Residual          L2-NORM 
          0                 1           2            24    7     1      -0.1984270590E-01      23    7    1        -0.1108150352E-02      0.1849518915E-01
          0                 2           2            24    7     1       0.1900703490E-02      23    7    1         0.1108052804E-03      0.1802971039E-02
          0                 3           2            25    7     1      -0.1642608594E-03      22    4    1         0.1060018431E-04      0.1645038399E-03
          0                 4           1            25    7     1       0.1265612755E-04      22    4    1        -0.1107062699E-05      0.1368757730E-04
          0                 5           1            25    7     1      -0.8563183308E-06      22    4    1         0.9300365100E-07      0.1008995511E-05

    ------------------------------------------------
       NWT REQUIRED            5 OUTER ITERATIONS 
       AND A TOTAL OF          8 INNER ITERATIONS.
    ------------------------------------------------

 NO OUTPUT CONTROL FOR STRESS PERIOD   39   TIME STEP   15
 
 WELLS WITH REDUCED PUMPING FOR STRESS PERIOD    39 TIME STEP    15
   LAY   ROW   COL         APPL.Q          ACT.Q        GW-HEAD       CELL-BOT
     1     3    50  -0.148003E+01  -0.330808E+00   0.342642E-03   0.000000E+00
     1     5    55  -0.148003E+01  -0.247967E+00   0.288498E-03   0.000000E+00
 
 
 SOLVING FOR HEAD 
                                                   Max.-Head-Change                         Max.-Flux-Residual
  Residual-Control   Outer-Iter.   Inner-Iter.     Column Row Layer    Maximum-Head-Change  Column Row Layer    Maximum-Flux-Residual          L2-NORM 
          0                 1           2            26    7     1      -0.2140055566E-01      24    1    1        -0.1088593452E-02      0.1834320148E-01
          0                 2           2            26    7     1       0.2051908330E-02      24    7    1         0.1088430713E-03      0.1788188598E-02
          0                 3           2            26    7     1      -0.1772151888E-03      23    4    1         0.1126409944E-04      0.1633321087E-03
          0                 4           1            26    7     1       0.1363220128E-04      23    4    1        -0.1147082511E-05      0.1362071091E-04
          0                 5           1            26    7     1      -0.9202732782E-06      23    4    1         0.9495194853E-07      0.1006775717E-05

    ------------------------------------------------
       NWT REQUIRED            5 OUTER ITERATIONS 
       AND A TOTAL OF          8 INNER ITERATIONS.
    ------------------------------------------------

 NO OUTPUT CONTROL FOR STRESS PERIOD   39   TIME STEP   16
 
 WELLS WITH REDUCED PUMPING FOR STRESS PERIOD    39 TIME STEP    16
   LAY   ROW   COL         APPL.Q          ACT.Q        GW-HEAD       CELL-BOT
     1     3    50  -0.148003E+01  -0.330604E+00   0.342521E-03   0.000000E+00
     1     5    55  -0.148003E+01  -0.247805E+00   0.288393E-03   0.000000E+00
 
 
 SOLVING FOR HEAD 
                                                   Max.-Head-Change                         Max.-Flux-Residual
  Residual-Control   Outer-Iter.   Inner-Iter.     Column Row Layer    Maximum-Head-Change  Column Row Layer    Maximum-Flux-Residual          L2-NORM 
          0                 1           2            27    7     1      -0.2300749791E-01      26    1    1        -0.1067229469E-02      0.1819226340E-01
          0                 2           2            27    7     1       0.2196296192E-02      26    7    1         0.1067089437E-03      0.1773332431E-02
          0                 3           2            27    7     1      -0.1889825640E-03      25    4    1         0.1115677200E-04      0.1622202377E-03
          0                 4           1            27    7     1       0.1448785928E-04      25    4    1        -0.1148567176E-05      0.1356659318E-04
          0                 5           1            27    7     1      -0.9751678427E-06      25    4    1         0.9573272308E-07      0.1005864255E-05

    ------------------------------------------------
       NWT REQUIRED            5 OUTER ITERATIONS 
       AND A TOTAL OF          8 INNER ITERATIONS.
    ------------------------------------------------

 NO OUTPUT CONTROL FOR STRESS PERIOD   39   TIME STEP   17
 
 WELLS WITH REDUCED PUMPING FOR STRESS PERIOD    39 TIME STEP    17
   LAY   ROW   COL         APPL.Q          ACT.Q        GW-HEAD       CELL-BOT
     1     3    50  -0.148006E+01  -0.330380E+00   0.342383E-03   0.000000E+00
     1     5    55  -0.148006E+01  -0.247628E+00   0.288274E-03   0.000000E+00
 
 
 SOLVING FOR HEAD 
                                                   Max.-Head-Change                         Max.-Flux-Residual
  Residual-Control   Outer-Iter.   Inner-Iter.     Column Row Layer    Maximum-Head-Change  Column Row Layer    Maximum-Flux-Residual          L2-NORM 
          0                 1           2             4    1     1      -0.2520224873E-01      27    7    1        -0.1043473078E-02      0.1804355054E-01
          0                 2           2             4    1     1       0.2355074370E-02      27    7    1         0.1043260469E-03      0.1758722662E-02
          0                 3           2            29    7     1      -0.2017865224E-03      26    4    1         0.1089476492E-04      0.1610526717E-03
          0                 4           1            29    7     1       0.1541235183E-04      26    4    1        -0.1123533780E-05      0.1349905699E-04
          0                 5           1            29    7     1      -0.1033192525E-05      26    4    1         0.9418339886E-07      0.1003212820E-05
          0                 6           1            28    7     1       0.5987076340E-07      26    4    1        -0.6477559822E-08      0.6435855271E-07

    ------------------------------------------------
       NWT REQUIRED            6 OUTER ITERATIONS 
       AND A TOTAL OF          9 INNER ITERATIONS.
    ------------------------------------------------

 NO OUTPUT CONTROL FOR STRESS PERIOD   39   TIME STEP   18
 
 WELLS WITH REDUCED PUMPING FOR STRESS PERIOD    39 TIME STEP    18
   LAY   ROW   COL         APPL.Q          ACT.Q        GW-HEAD       CELL-BOT
     1     3    50  -0.148005E+01  -0.330134E+00   0.342239E-03   0.000000E+00
     1     5    55  -0.148005E+01  -0.247434E+00   0.288149E-03   0.000000E+00
 
 
 SOLVING FOR HEAD 
                                                   Max.-Head-Change                         Max.-Flux-Residual
  Residual-Control   Outer-Iter.   Inner-Iter.     Column Row Layer    Maximum-Head-Change  Column Row Layer    Maximum-Flux-Residual          L2-NORM 
          0                 1           2             3    1     1      -0.2769740459E-01       4    7    1        -0.1041050044E-02      0.1789547526E-01
          0                 2           2             3    1     1       0.2582018175E-02       4    1    1         0.1041030775E-03      0.1744627102E-02
          0                 3           2             4    1     1      -0.2169781329E-03      28    4    1         0.1159445132E-04      0.1600533961E-03
          0                 4           1             4    1     1       0.1625850732E-04      28    4    1        -0.1174188487E-05      0.1345563077E-04
          0                 5           1            31    7     1      -0.1084586080E-05      28    4    1         0.9742204554E-07      0.1002571647E-05
          0                 6           1            31    7     1       0.6261270615E-07      28    4    1        -0.6658494200E-08      0.6448432019E-07

    ------------------------------------------------
       NWT REQUIRED            6 OUTER ITERATIONS 
       AND A TOTAL OF          9 INNER ITERATIONS.
    ------------------------------------------------

 NO OUTPUT CONTROL FOR STRESS PERIOD   39   TIME STEP   19
 
 WELLS WITH REDUCED PUMPING FOR STRESS PERIOD    39 TIME STEP    19
   LAY   ROW   COL         APPL.Q          ACT.Q        GW-HEAD       CELL-BOT
     1     3    50  -0.147997E+01  -0.329864E+00   0.342090E-03   0.000000E+00
     1     5    55  -0.147997E+01  -0.247221E+00   0.288020E-03   0.000000E+00
 
 
 SOLVING FOR HEAD 
                                                   Max.-Head-Change                         Max.-Flux-Residual
  Residual-Control   Outer-Iter.   Inner-Iter.     Column Row Layer    Maximum-Head-Change  Column Row Layer    Maximum-Flux-Residual          L2-NORM 
          0                 1           2             3    1     1      -0.3044207457E-01       3    7    1        -0.1040321912E-02      0.1773983131E-01
          0                 2           2             3    1     1       0.2831491996E-02       3    7    1         0.1040298217E-03      0.1729880211E-02
          0                 3           2             3    1     1      -0.2372693672E-03      29    4    1         0.1150203867E-04      0.1588822172E-03
          0                 4           1             3    1     1       0.1771599025E-04      29    4    1        -0.1190104488E-05      0.1338504549E-04
          0                 5           1             4    1     1      -0.1156926473E-05      29    4    1         0.9875473772E-07      0.9988200540E-06
          0                 6           1            32    7     1       0.6636174748E-07      30    4    1        -0.6746191161E-08      0.6436426199E-07

    ------------------------------------------------
       NWT REQUIRED            6 OUTER ITERATIONS 
       AND A TOTAL OF          9 INNER ITERATIONS.
    ------------------------------------------------

 NO OUTPUT CONTROL FOR STRESS PERIOD   39   TIME STEP   20
 
 WELLS WITH REDUCED PUMPING FOR STRESS PERIOD    39 TIME STEP    20
   LAY   ROW   COL         APPL.Q          ACT.Q        GW-HEAD       CELL-BOT
     1     3    50  -0.147996E+01  -0.329567E+00   0.341914E-03   0.000000E+00
     1     5    55  -0.147996E+01  -0.246987E+00   0.287869E-03   0.000000E+00
 
 
 SOLVING FOR HEAD 
                                                   Max.-Head-Change                         Max.-Flux-Residual
  Residual-Control   Outer-Iter.   Inner-Iter.     Column Row Layer    Maximum-Head-Change  Column Row Layer    Maximum-Flux-Residual          L2-NORM 
          0                 1           2             2    1     1      -0.3346092290E-01       3    7    1        -0.1039664854E-02      0.1757597992E-01
          0                 2           2             2    1     1       0.3105435663E-02       3    7    1         0.1039637947E-03      0.1714377771E-02
          0                 3           2             2    1     1      -0.2595102442E-03      31    4    1         0.1269202874E-04      0.1577354537E-03
          0                 4           1             3    1     1       0.1930987696E-04      31    4    1        -0.1271340082E-05      0.1332706236E-04
          0                 5           1             1    1     1      -0.1253008121E-05      31    4    1         0.1031648758E-06      0.9962085893E-06
          0                 6           1             1    1     1       0.7027303279E-07      31    4    1        -0.6913765560E-08      0.6430856000E-07

    ------------------------------------------------
       NWT REQUIRED            6 OUTER ITERATIONS 
       AND A TOTAL OF          9 INNER ITERATIONS.
    ------------------------------------------------

 NO OUTPUT CONTROL FOR STRESS PERIOD   39   TIME STEP   21
 
 WELLS WITH REDUCED PUMPING FOR STRESS PERIOD    39 TIME STEP    21
   LAY   ROW   COL         APPL.Q          ACT.Q        GW-HEAD       CELL-BOT
     1     3    50  -0.148000E+01  -0.329230E+00   0.341708E-03   0.000000E+00
     1     5    55  -0.148000E+01  -0.246721E+00   0.287691E-03   0.000000E+00
 
 
 SOLVING FOR HEAD 
                                                   Max.-Head-Change                         Max.-Flux-Residual
  Residual-Control   Outer-Iter.   Inner-Iter.     Column Row Layer    Maximum-Head-Change  Column Row Layer    Maximum-Flux-Residual          L2-NORM 
          0                 1           2             1    1     1      -0.3678046946E-01       2    1    1        -0.1039071210E-02      0.1740795247E-01
          0                 2           2             1    1     1       0.3406419702E-02       1    7    1         0.1039040784E-03      0.1697447756E-02
          0                 3           2             1    1     1      -0.2839145653E-03      32    4    1         0.1084749587E-04      0.1563912604E-03
          0                 4           1             1    1     1       0.2105284736E-04      32    4    1        -0.1128665653E-05      0.1324861648E-04
          0                 5           1             1    1     1      -0.1356422181E-05      32    4    1         0.9495060738E-07      0.9914462315E-06
          0                 6           1             1    1     1       0.7547565357E-07      32    4    1        -0.6537902664E-08      0.6408411803E-07

    ------------------------------------------------
       NWT REQUIRED            6 OUTER ITERATIONS 
       AND A TOTAL OF          9 INNER ITERATIONS.
    ------------------------------------------------

 NO OUTPUT CONTROL FOR STRESS PERIOD   39   TIME STEP   22
 
 WELLS WITH REDUCED PUMPING FOR STRESS PERIOD    39 TIME STEP    22
   LAY   ROW   COL         APPL.Q          ACT.Q        GW-HEAD       CELL-BOT
     1     3    50  -0.147999E+01  -0.328866E+00   0.341493E-03   0.000000E+00
     1     5    55  -0.147999E+01  -0.246434E+00   0.287505E-03   0.000000E+00
 
 
 SOLVING FOR HEAD 
                                                   Max.-Head-Change                         Max.-Flux-Residual
  Residual-Control   Outer-Iter.   Inner-Iter.     Column Row Layer    Maximum-Head-Change  Column Row Layer    Maximum-Flux-Residual          L2-NORM 
          0                 1           2             1    1     1      -0.4042485565E-01       1    7    1        -0.1038504179E-02      0.1725902357E-01
          0                 2           2             1    1     1       0.3736628478E-02      34    4    1        -0.1061698689E-03      0.1683826427E-02
          0                 3           2             1    1     1      -0.3106581165E-03      34    4    1         0.1293710168E-04      0.1553486815E-03
          0                 4           1             1    1     1       0.2295782863E-04      34    4    1        -0.1272048239E-05      0.1318894804E-04
          0                 5           1             1    1     1      -0.1466886309E-05      34    4    1         0.1035692545E-06      0.9867655731E-06
          0                 6           1             1    1     1       0.8088850599E-07      34    4    1        -0.6986692114E-08      0.6378906847E-07

    ------------------------------------------------
       NWT REQUIRED            6 OUTER ITERATIONS 
       AND A TOTAL OF          9 INNER ITERATIONS.
    ------------------------------------------------

 NO OUTPUT CONTROL FOR STRESS PERIOD   39   TIME STEP   23
 
 WELLS WITH REDUCED PUMPING FOR STRESS PERIOD    39 TIME STEP    23
   LAY   ROW   COL         APPL.Q          ACT.Q        GW-HEAD       CELL-BOT
     1     3    50  -0.148003E+01  -0.328472E+00   0.341253E-03   0.000000E+00
     1     5    55  -0.148003E+01  -0.246123E+00   0.287298E-03   0.000000E+00
 
 
 SOLVING FOR HEAD 
                                                   Max.-Head-Change                         Max.-Flux-Residual
  Residual-Control   Outer-Iter.   Inner-Iter.     Column Row Layer    Maximum-Head-Change  Column Row Layer    Maximum-Flux-Residual          L2-NORM 
          0                 1           2             1    1     1      -0.4442515532E-01       1    7    1        -0.1037810970E-02      0.1708425653E-01
          0                 2           2             1    1     1       0.4098779222E-02       1    1    1         0.1037772421E-03      0.1665686634E-02
          0                 3           2             1    1     1      -0.3399511692E-03      36    4    1         0.1071839695E-04      0.1538302488E-03
          0                 4           1             1    1     1       0.2503768196E-04      36    4    1        -0.1106795690E-05      0.1309166655E-04
          0                 5           1             1    1     1      -0.1584207206E-05      36    4    1         0.9292111791E-07      0.9789101327E-06
          0                 6           1             1    1     1       0.8644255832E-07       2    4    1        -0.6433282351E-08      0.6326907447E-07

    ------------------------------------------------
       NWT REQUIRED            6 OUTER ITERATIONS 
       AND A TOTAL OF          9 INNER ITERATIONS.
    ------------------------------------------------

 NO OUTPUT CONTROL FOR STRESS PERIOD   39   TIME STEP   24
 
 WELLS WITH REDUCED PUMPING FOR STRESS PERIOD    39 TIME STEP    24
   LAY   ROW   COL         APPL.Q          ACT.Q        GW-HEAD       CELL-BOT
     1     3    50  -0.147999E+01  -0.328041E+00   0.341001E-03   0.000000E+00
     1     5    55  -0.147999E+01  -0.245785E+00   0.287082E-03   0.000000E+00
 
 
 SOLVING FOR HEAD 
                                                   Max.-Head-Change                         Max.-Flux-Residual
  Residual-Control   Outer-Iter.   Inner-Iter.     Column Row Layer    Maximum-Head-Change  Column Row Layer    Maximum-Flux-Residual          L2-NORM 
          0                 1           3             1    1     1      -0.4881940304E-01       1    7    1        -0.1036987868E-02      0.1693318800E-01
          0                 2           2             1    1     1       0.4497165662E-02       1    7    1         0.1036944575E-03      0.1650497715E-02
          0                 3           2             1    1     1      -0.3721961194E-03      37    4    1         0.1187798328E-04      0.1525440290E-03
          0                 4           1             1    1     1       0.2732322208E-04      37    4    1        -0.1170757780E-05      0.1300646541E-04
          0                 5           1             1    1     1      -0.1708930643E-05      37    4    1         0.9159782088E-07      0.9704038618E-06
          0                 6           1             1    1     1       0.9209570747E-07       2    4    1        -0.6477552716E-08      0.6262804494E-07

    ------------------------------------------------
       NWT REQUIRED            6 OUTER ITERATIONS 
       AND A TOTAL OF         10 INNER ITERATIONS.
    ------------------------------------------------

 NO OUTPUT CONTROL FOR STRESS PERIOD   39   TIME STEP   25
 
 WELLS WITH REDUCED PUMPING FOR STRESS PERIOD    39 TIME STEP    25
   LAY   ROW   COL         APPL.Q          ACT.Q        GW-HEAD       CELL-BOT
     1     3    50  -0.148002E+01  -0.327567E+00   0.340716E-03   0.000000E+00
     1     5    55  -0.148002E+01  -0.245416E+00   0.286839E-03   0.000000E+00
 
 
 SOLVING FOR HEAD 
                                                   Max.-Head-Change                         Max.-Flux-Residual
  Residual-Control   Outer-Iter.   Inner-Iter.     Column Row Layer    Maximum-Head-Change  Column Row Layer    Maximum-Flux-Residual          L2-NORM 
          0                 1           3             4    4     1      -0.5464203529E-01       1    7    1        -0.1036098547E-02      0.1687157079E-01
          0                 2           2             3    1     1       0.5003758876E-02       1    7    1         0.1036138173E-03      0.1636639815E-02
          0                 3           2             3    1     1      -0.4137785431E-03      39    4    1         0.1094721387E-04      0.1507168692E-03
          0                 4           1             3    1     1       0.3030657580E-04      39    4    1        -0.1088647065E-05      0.1283619913E-04
          0                 5           1             3    1     1      -0.1871583328E-05      39    4    1         0.8471839852E-07      0.9531899009E-06
          0                 6           1             1    1     1       0.9937898824E-07       2    4    1        -0.6225931770E-08      0.6136146317E-07

    ------------------------------------------------
       NWT REQUIRED            6 OUTER ITERATIONS 
       AND A TOTAL OF         10 INNER ITERATIONS.
    ------------------------------------------------

 NO OUTPUT CONTROL FOR STRESS PERIOD   39   TIME STEP   26
 
 WELLS WITH REDUCED PUMPING FOR STRESS PERIOD    39 TIME STEP    26
   LAY   ROW   COL         APPL.Q          ACT.Q        GW-HEAD       CELL-BOT
     1     3    50  -0.148001E+01  -0.327047E+00   0.340407E-03   0.000000E+00
     1     5    55  -0.148001E+01  -0.245013E+00   0.286576E-03   0.000000E+00
 
 
 SOLVING FOR HEAD 
                                                   Max.-Head-Change                         Max.-Flux-Residual
  Residual-Control   Outer-Iter.   Inner-Iter.     Column Row Layer    Maximum-Head-Change  Column Row Layer    Maximum-Flux-Residual          L2-NORM 
          0                 1           3             1    4     1      -0.6075882118E-01       3    5    1        -0.1054083126E-02      0.1686867975E-01
          0                 2           2             1    1     1       0.5565517954E-02       3    5    1         0.1054098380E-03      0.1633129101E-02
          0                 3           2             4    1     1      -0.4600941289E-03      40    4    1         0.1079821353E-04      0.1501902192E-03
          0                 4           1             4    1     1       0.3364423610E-04      40    4    1        -0.1056095254E-05      0.1279293618E-04
          0                 5           1             4    1     1      -0.2042367434E-05      40    4    1         0.8594113599E-07      0.9444370275E-06
          0                 6           1             1    1     1       0.1063433818E-06       2    4    1        -0.6383203299E-08      0.6056303037E-07

    ------------------------------------------------
       NWT REQUIRED            6 OUTER ITERATIONS 
       AND A TOTAL OF         10 INNER ITERATIONS.
    ------------------------------------------------

 NO OUTPUT CONTROL FOR STRESS PERIOD   39   TIME STEP   27
 
 WELLS WITH REDUCED PUMPING FOR STRESS PERIOD    39 TIME STEP    27
   LAY   ROW   COL         APPL.Q          ACT.Q        GW-HEAD       CELL-BOT
     1     3    50  -0.148000E+01  -0.326470E+00   0.340064E-03   0.000000E+00
     1     5    55  -0.148000E+01  -0.244564E+00   0.286284E-03   0.000000E+00
 
 
 SOLVING FOR HEAD 
                                                   Max.-Head-Change                         Max.-Flux-Residual
  Residual-Control   Outer-Iter.   Inner-Iter.     Column Row Layer    Maximum-Head-Change  Column Row Layer    Maximum-Flux-Residual          L2-NORM 
          0                 1           3             1    1     1      -0.6664118713E-01       1    5    1        -0.1066472693E-02      0.1683722989E-01
          0                 2           2             2    1     1       0.6134925098E-02       1    5    1         0.1066374691E-03      0.1634129279E-02
          0                 3           2             3    1     1      -0.5068540495E-03      42    4    1         0.1068720385E-04      0.1506082168E-03
          0                 4           1             3    1     1       0.3698279700E-04      42    4    1        -0.1023488509E-05      0.1285354152E-04
          0                 5           1             3    1     1      -0.2206110681E-05       1    4    1         0.8425817555E-07      0.9421741493E-06
          0                 6           1             1    1     1       0.1125910522E-06       9    4    1        -0.6379686113E-08      0.6010283574E-07

    ------------------------------------------------
       NWT REQUIRED            6 OUTER ITERATIONS 
       AND A TOTAL OF         10 INNER ITERATIONS.
    ------------------------------------------------

 NO OUTPUT CONTROL FOR STRESS PERIOD   39   TIME STEP   28
 
 WELLS WITH REDUCED PUMPING FOR STRESS PERIOD    39 TIME STEP    28
   LAY   ROW   COL         APPL.Q          ACT.Q        GW-HEAD       CELL-BOT
     1     3    50  -0.147997E+01  -0.325835E+00   0.339689E-03   0.000000E+00
     1     5    55  -0.147997E+01  -0.244072E+00   0.285966E-03   0.000000E+00
 
 
 SOLVING FOR HEAD 
                                                   Max.-Head-Change                         Max.-Flux-Residual
  Residual-Control   Outer-Iter.   Inner-Iter.     Column Row Layer    Maximum-Head-Change  Column Row Layer    Maximum-Flux-Residual          L2-NORM 
          0                 1           3             1    1     1      -0.7329662221E-01       1    5    1        -0.1063417700E-02      0.1675759552E-01
          0                 2           2             1    1     1       0.6745021879E-02       1    5    1         0.1063337249E-03      0.1626873387E-02
          0                 3           2             1    1     1      -0.5564564285E-03      43    4    1         0.9985101689E-05      0.1500405736E-03
          0                 4           1             1    1     1       0.4047072660E-04      43    4    1        -0.9460408377E-06      0.1282451519E-04
          0                 5           1             1    1     1      -0.2356277409E-05       9    4    1         0.8486081882E-07      0.9316147338E-06
          0                 6           1             1    1     1       0.1175944787E-06       9    4    1        -0.6445297629E-08      0.5910192835E-07

    ------------------------------------------------
       NWT REQUIRED            6 OUTER ITERATIONS 
       AND A TOTAL OF         10 INNER ITERATIONS.
    ------------------------------------------------

 NO OUTPUT CONTROL FOR STRESS PERIOD   39   TIME STEP   29
 
 WELLS WITH REDUCED PUMPING FOR STRESS PERIOD    39 TIME STEP    29
   LAY   ROW   COL         APPL.Q          ACT.Q        GW-HEAD       CELL-BOT
     1     3    50  -0.148002E+01  -0.325153E+00   0.339276E-03   0.000000E+00
     1     5    55  -0.148002E+01  -0.243540E+00   0.285613E-03   0.000000E+00
 
 
 SOLVING FOR HEAD 
                                                   Max.-Head-Change                         Max.-Flux-Residual
  Residual-Control   Outer-Iter.   Inner-Iter.     Column Row Layer    Maximum-Head-Change  Column Row Layer    Maximum-Flux-Residual          L2-NORM 
          0                 1           3             1    1     1      -0.8049711244E-01       1    5    1        -0.1063010250E-02      0.1668050324E-01
          0                 2           2             1    1     1       0.7399273001E-02       1    5    1         0.1062907663E-03      0.1619658344E-02
          0                 3           2             1    1     1      -0.6094465578E-03      61    4    1         0.9685373912E-05      0.1494648902E-03
          0                 4           1             1    1     1       0.4416195157E-04      45    4    1        -0.8609680795E-06      0.1278991424E-04
          0                 5           1             1    1     1      -0.2491336952E-05       9    4    1         0.8647572258E-07      0.9184831352E-06
          0                 6           1             1    1     1       0.1205061630E-06       9    4    1        -0.6484519588E-08      0.5791806667E-07

    ------------------------------------------------
       NWT REQUIRED            6 OUTER ITERATIONS 
       AND A TOTAL OF         10 INNER ITERATIONS.
    ------------------------------------------------

 NO OUTPUT CONTROL FOR STRESS PERIOD   39   TIME STEP   30
 
 WELLS WITH REDUCED PUMPING FOR STRESS PERIOD    39 TIME STEP    30
   LAY   ROW   COL         APPL.Q          ACT.Q        GW-HEAD       CELL-BOT
     1     3    50  -0.147997E+01  -0.324420E+00   0.338844E-03   0.000000E+00
     1     5    55  -0.147997E+01  -0.242962E+00   0.285240E-03   0.000000E+00
 



 STREAM LISTING     PERIOD     39   STEP       30

 LAYER ROW COL. STREAM  RCH.   FLOW INTO    STREAM     FLOW OUT OF   OVRLND.    DIRECT     STREAM      STREAM      STREAM     STREAM  STREAMBED   FLOW TO   CHNG. UNSAT. 
                SEG.NO.  NO.   STRM. RCH.    LOSS       STRM. RCH.   RUNOFF     PRECIP       ET         HEAD        DEPTH      WIDTH  CONDCTNC.   WAT. TAB.

   1    4    1     1     1    3.0000E+00  1.1769E-03   2.9988E+00  0.000E+00  0.000E+00  0.000E+00  1.41144E+02  1.294E+00  3.361E+00  6.560E-04  1.143E-03  3.401E-05
   1    4    2     1     2    2.9988E+00  1.1766E-03   2.9976E+00  0.000E+00  0.000E+00  0.000E+00  1.40844E+02  1.294E+00  3.361E+00  6.559E-04  1.143E-03  3.401E-05
   1    4    3     1     3    2.9976E+00  1.1763E-03   2.9965E+00  0.000E+00  0.000E+00  0.000E+00  1.40544E+02  1.294E+00  3.360E+00  6.558E-04  1.142E-03  3.399E-05
   1    4    4     1     4    2.9965E+00  1.1759E-03   2.9953E+00  0.000E+00  0.000E+00  0.000E+00  1.40243E+02  1.293E+00  3.360E+00  6.557E-04  1.142E-03  3.396E-05
   1    4    5     1     5    2.9953E+00  1.1756E-03   2.9941E+00  0.000E+00  0.000E+00  0.000E+00  1.39943E+02  1.293E+00  3.360E+00  6.556E-04  1.142E-03  3.391E-05
   1    4    6     1     6    2.9941E+00  1.1753E-03   2.9929E+00  0.000E+00  0.000E+00  0.000E+00  1.39643E+02  1.293E+00  3.359E+00  6.555E-04  1.141E-03  3.384E-05
   1    4    7     1     7    2.9929E+00  1.1750E-03   2.9918E+00  0.000E+00  0.000E+00  0.000E+00  1.39343E+02  1.293E+00  3.359E+00  6.554E-04  1.141E-03  3.375E-05
   1    4    8     1     8    2.9918E+00  1.1746E-03   2.9906E+00  0.000E+00  0.000E+00  0.000E+00  1.39042E+02  1.292E+00  3.359E+00  6.554E-04  1.141E-03  3.364E-05
   1    4    9     1     9    2.9906E+00  1.1743E-03   2.9894E+00  0.000E+00  0.000E+00  0.000E+00  1.38742E+02  1.292E+00  3.358E+00  6.553E-04  1.141E-03  3.351E-05
   1    4   10     1    10    2.9894E+00  1.1740E-03   2.9882E+00  0.000E+00  0.000E+00  0.000E+00  1.38442E+02  1.292E+00  3.358E+00  6.552E-04  1.141E-03  3.335E-05
   1    4   11     1    11    2.9882E+00  1.1736E-03   2.9871E+00  0.000E+00  0.000E+00  0.000E+00  1.38142E+02  1.292E+00  3.358E+00  6.551E-04  1.140E-03  3.317E-05
   1    4   12     1    12    2.9871E+00  1.1733E-03   2.9859E+00  0.000E+00  0.000E+00  0.000E+00  1.37841E+02  1.291E+00  3.357E+00  6.550E-04  1.140E-03  3.297E-05
   1    4   13     1    13    2.9859E+00  1.1730E-03   2.9847E+00  0.000E+00  0.000E+00  0.000E+00  1.37541E+02  1.291E+00  3.357E+00  6.549E-04  1.140E-03  3.275E-05
   1    4   14     1    14    2.9847E+00  1.1727E-03   2.9836E+00  0.000E+00  0.000E+00  0.000E+00  1.37241E+02  1.291E+00  3.357E+00  6.548E-04  1.142E-03  3.068E-05
   1    4   15     1    15    2.9836E+00  1.1723E-03   2.9824E+00  0.000E+00  0.000E+00  0.000E+00  1.36941E+02  1.291E+00  3.357E+00  6.548E-04  1.150E-03  2.230E-05
   1    4   16     1    16    2.9824E+00  1.1720E-03   2.9812E+00  0.000E+00  0.000E+00  0.000E+00  1.36640E+02  1.290E+00  3.356E+00  6.547E-04  1.152E-03  1.952E-05
   1    4   17     1    17    2.9812E+00  1.1717E-03   2.9800E+00  0.000E+00  0.000E+00  0.000E+00  1.36340E+02  1.290E+00  3.356E+00  6.546E-04  1.153E-03  1.917E-05
   1    4   18     1    18    2.9800E+00  1.1714E-03   2.9789E+00  0.000E+00  0.000E+00  0.000E+00  1.36040E+02  1.290E+00  3.356E+00  6.545E-04  1.153E-03  1.880E-05
   1    4   19     1    19    2.9789E+00  1.1710E-03   2.9777E+00  0.000E+00  0.000E+00  0.000E+00  1.35739E+02  1.289E+00  3.355E+00  6.544E-04  1.153E-03  1.841E-05
   1    4   20     1    20    2.9777E+00  1.1707E-03   2.9765E+00  0.000E+00  0.000E+00  0.000E+00  1.35439E+02  1.289E+00  3.355E+00  6.543E-04  1.153E-03  1.799E-05
   1    4   21     1    21    2.9765E+00  1.1704E-03   2.9754E+00  0.000E+00  0.000E+00  0.000E+00  1.35139E+02  1.289E+00  3.355E+00  6.542E-04  1.153E-03  1.753E-05
   1    4   22     1    22    2.9754E+00  1.1701E-03   2.9742E+00  0.000E+00  0.000E+00  0.000E+00  1.34839E+02  1.289E+00  3.354E+00  6.542E-04  1.153E-03  1.704E-05
   1    4   23     1    23    2.9742E+00  1.1697E-03   2.9730E+00  0.000E+00  0.000E+00  0.000E+00  1.34538E+02  1.288E+00  3.354E+00  6.541E-04  1.153E-03  1.652E-05
   1    4   24     1    24    2.9730E+00  1.1694E-03   2.9718E+00  0.000E+00  0.000E+00  0.000E+00  1.34238E+02  1.288E+00  3.354E+00  6.540E-04  1.153E-03  1.596E-05
   1    4   25     1    25    2.9718E+00  1.1691E-03   2.9707E+00  0.000E+00  0.000E+00  0.000E+00  1.33938E+02  1.288E+00  3.353E+00  6.539E-04  1.154E-03  1.536E-05
   1    4   26     1    26    2.9707E+00  1.1688E-03   2.9695E+00  0.000E+00  0.000E+00  0.000E+00  1.33638E+02  1.288E+00  3.353E+00  6.538E-04  1.154E-03  1.472E-05
   1    4   27     1    27    2.9695E+00  1.1684E-03   2.9683E+00  0.000E+00  0.000E+00  0.000E+00  1.33337E+02  1.287E+00  3.353E+00  6.537E-04  1.156E-03  1.269E-05
   1    4   28     1    28    2.9683E+00  1.1681E-03   2.9672E+00  0.000E+00  0.000E+00  0.000E+00  1.33037E+02  1.287E+00  3.352E+00  6.536E-04  1.156E-03  1.187E-05
   1    4   29     1    29    2.9672E+00  1.1678E-03   2.9660E+00  0.000E+00  0.000E+00  0.000E+00  1.32737E+02  1.287E+00  3.352E+00  6.535E-04  1.157E-03  1.098E-05
   1    4   30     1    30    2.9660E+00  1.1675E-03   2.9648E+00  0.000E+00  0.000E+00  0.000E+00  1.32437E+02  1.287E+00  3.352E+00  6.535E-04  1.157E-03  1.005E-05
   1    4   31     1    31    2.9648E+00  1.1671E-03   2.9637E+00  0.000E+00  0.000E+00  0.000E+00  1.32136E+02  1.286E+00  3.351E+00  6.534E-04  1.158E-03  9.049E-06
   1    4   32     1    32    2.9637E+00  1.1668E-03   2.9625E+00  0.000E+00  0.000E+00  0.000E+00  1.31836E+02  1.286E+00  3.351E+00  6.533E-04  1.159E-03  7.997E-06
   1    4   33     1    33    2.9625E+00  1.1665E-03   2.9613E+00  0.000E+00  0.000E+00  0.000E+00  1.31536E+02  1.286E+00  3.351E+00  6.532E-04  1.160E-03  6.900E-06
   1    4   34     1    34    2.9613E+00  1.1662E-03   2.9602E+00  0.000E+00  0.000E+00  0.000E+00  1.31236E+02  1.286E+00  3.351E+00  6.531E-04  1.160E-03  5.755E-06
   1    4   35     1    35    2.9602E+00  1.1658E-03   2.9590E+00  0.000E+00  0.000E+00  0.000E+00  1.30935E+02  1.285E+00  3.350E+00  6.530E-04  1.161E-03  4.563E-06
   1    4   36     1    36    2.9590E+00  1.1655E-03   2.9578E+00  0.000E+00  0.000E+00  0.000E+00  1.30635E+02  1.285E+00  3.350E+00  6.529E-04  1.162E-03  3.309E-06
   1    4   37     1    37    2.9578E+00  1.1652E-03   2.9567E+00  0.000E+00  0.000E+00  0.000E+00  1.30335E+02  1.285E+00  3.350E+00  6.529E-04  1.168E-03 -2.594E-06
   1    4   38     1    38    2.9567E+00  1.1649E-03   2.9555E+00  0.000E+00  0.000E+00  0.000E+00  1.30034E+02  1.284E+00  3.349E+00  6.528E-04  1.183E-03 -1.778E-05
   1    4   39     1    39    2.9555E+00  1.1645E-03   2.9543E+00  0.000E+00  0.000E+00  0.000E+00  1.29734E+02  1.284E+00  3.349E+00  6.527E-04  1.210E-03 -4.555E-05
   1    4   40     1    40    2.9543E+00  1.1642E-03   2.9532E+00  0.000E+00  0.000E+00  0.000E+00  1.29434E+02  1.284E+00  3.349E+00  6.526E-04  1.251E-03 -8.658E-05
   1    4   41     1    41    2.9532E+00  1.1639E-03   2.9520E+00  0.000E+00  0.000E+00  0.000E+00  1.29134E+02  1.284E+00  3.348E+00  6.525E-04  1.300E-03 -1.362E-04
   1    4   42     1    42    2.9520E+00  1.1636E-03   2.9509E+00  0.000E+00  0.000E+00  0.000E+00  1.28833E+02  1.283E+00  3.348E+00  6.524E-04  1.340E-03 -1.762E-04
   1    4   43     1    43    2.9509E+00  1.1632E-03   2.9497E+00  0.000E+00  0.000E+00  0.000E+00  1.28533E+02  1.283E+00  3.348E+00  6.523E-04  1.367E-03 -2.034E-04
   1    4   44     1    44    2.9497E+00  1.1629E-03   2.9485E+00  0.000E+00  0.000E+00  0.000E+00  1.28233E+02  1.283E+00  3.347E+00  6.523E-04  1.379E-03 -2.162E-04
   1    4   45     1    45    2.9485E+00  1.1626E-03   2.9474E+00  0.000E+00  0.000E+00  0.000E+00  1.27933E+02  1.283E+00  3.347E+00  6.522E-04  1.146E-03  1.625E-05
   1    4   46     1    46    2.9474E+00  1.1623E-03   2.9462E+00  0.000E+00  0.000E+00  0.000E+00  1.27632E+02  1.282E+00  3.347E+00  6.521E-04  2.600E-04  9.022E-04
   1    4   47     1    47    2.9462E+00  1.1619E-03   2.9450E+00  0.000E+00  0.000E+00  0.000E+00  1.27332E+02  1.282E+00  3.346E+00  6.520E-04  1.901E-04  9.719E-04
   1    4   48     1    48    2.9450E+00  1.1616E-03   2.9439E+00  0.000E+00  0.000E+00  0.000E+00  1.27032E+02  1.282E+00  3.346E+00  6.519E-04  2.342E-04  9.274E-04
   1    4   49     1    49    2.9439E+00  1.1613E-03   2.9427E+00  0.000E+00  0.000E+00  0.000E+00  1.26732E+02  1.282E+00  3.346E+00  6.518E-04  2.466E-04  9.147E-04
   1    4   50     1    50    2.9427E+00  1.1610E-03   2.9416E+00  0.000E+00  0.000E+00  0.000E+00  1.26431E+02  1.281E+00  3.346E+00  6.518E-04  2.937E-04  8.672E-04
   1    4   51     1    51    2.9416E+00  1.1607E-03   2.9404E+00  0.000E+00  0.000E+00  0.000E+00  1.26131E+02  1.281E+00  3.345E+00  6.517E-04  2.917E-04  8.690E-04
   1    4   52     1    52    2.9404E+00  1.1603E-03   2.9392E+00  0.000E+00  0.000E+00  0.000E+00  1.25831E+02  1.281E+00  3.345E+00  6.516E-04  2.907E-04  8.696E-04
   1    4   53     1    53    2.9392E+00  1.1600E-03   2.9381E+00  0.000E+00  0.000E+00  0.000E+00  1.25531E+02  1.281E+00  3.345E+00  6.515E-04  2.905E-04  8.695E-04
   1    4   54     1    54    2.9381E+00  1.1597E-03   2.9369E+00  0.000E+00  0.000E+00  0.000E+00  1.25230E+02  1.280E+00  3.344E+00  6.514E-04  2.908E-04  8.688E-04
   1    4   55     1    55    2.9369E+00  1.1594E-03   2.9358E+00  0.000E+00  0.000E+00  0.000E+00  1.24930E+02  1.280E+00  3.344E+00  6.513E-04  2.923E-04  8.671E-04
   1    4   56     1    56    2.9358E+00  1.1590E-03   2.9346E+00  0.000E+00  0.000E+00  0.000E+00  1.24630E+02  1.280E+00  3.344E+00  6.512E-04  2.269E-04  9.321E-04
   1    4   57     1    57    2.9346E+00  1.1587E-03   2.9334E+00  0.000E+00  0.000E+00  0.000E+00  1.24329E+02  1.279E+00  3.343E+00  6.512E-04  2.411E-04  9.176E-04
   1    4   58     1    58    2.9334E+00  1.1584E-03   2.9323E+00  0.000E+00  0.000E+00  0.000E+00  1.24029E+02  1.279E+00  3.343E+00  6.511E-04  1.879E-04  9.705E-04
   1    4   59     1    59    2.9323E+00  1.1581E-03   2.9311E+00  0.000E+00  0.000E+00  0.000E+00  1.23729E+02  1.279E+00  3.343E+00  6.510E-04  1.870E-04  9.710E-04
   1    4   60     1    60    2.9311E+00  1.1577E-03   2.9300E+00  0.000E+00  0.000E+00  0.000E+00  1.23429E+02  1.279E+00  3.342E+00  6.509E-04  6.983E-04  4.594E-04
   1    4   61     1    61    2.9300E+00  1.1574E-03   2.9288E+00  0.000E+00  0.000E+00  0.000E+00  1.23128E+02  1.278E+00  3.342E+00  6.508E-04  1.381E-03 -2.238E-04
   1    4   62     1    62    2.9288E+00  1.1571E-03   2.9276E+00  0.000E+00  0.000E+00  0.000E+00  1.22828E+02  1.278E+00  3.342E+00  6.507E-04  1.373E-03 -2.161E-04
   1    4   63     1    63    2.9276E+00  1.1568E-03   2.9265E+00  0.000E+00  0.000E+00  0.000E+00  1.22528E+02  1.278E+00  3.341E+00  6.506E-04  1.352E-03 -1.951E-04
   1    4   64     1    64    2.9265E+00  1.1565E-03   2.9253E+00  0.000E+00  0.000E+00  0.000E+00  1.22228E+02  1.278E+00  3.341E+00  6.506E-04  1.316E-03 -1.598E-04
   1    4   65     1    65    2.9253E+00  1.1561E-03   2.9242E+00  0.000E+00  0.000E+00  0.000E+00  1.21927E+02  1.277E+00  3.341E+00  6.505E-04  1.269E-03 -1.126E-04
   1    4   66     1    66    2.9242E+00  1.1558E-03   2.9230E+00  0.000E+00  0.000E+00  0.000E+00  1.21627E+02  1.277E+00  3.340E+00  6.504E-04  1.220E-03 -6.453E-05
   1    4   67     1    67    2.9230E+00  1.1555E-03   2.9219E+00  0.000E+00  0.000E+00  0.000E+00  1.21327E+02  1.277E+00  3.340E+00  6.503E-04  1.188E-03 -3.243E-05
   1    4   68     1    68    2.9219E+00  1.1552E-03   2.9207E+00  0.000E+00  0.000E+00  0.000E+00  1.21027E+02  1.277E+00  3.340E+00  6.502E-04  1.169E-03 -1.419E-05
   1    4   69     1    69    2.9207E+00  1.1548E-03   2.9196E+00  0.000E+00  0.000E+00  0.000E+00  1.20726E+02  1.276E+00  3.340E+00  6.501E-04  1.163E-03 -8.590E-06
   1    4   70     1    70    2.9196E+00  1.1545E-03   2.9184E+00  0.000E+00  0.000E+00  0.000E+00  1.20426E+02  1.276E+00  3.339E+00  6.500E-04  1.163E-03 -8.448E-06
   1    4   71     1    71    2.9184E+00  1.1542E-03   2.9172E+00  0.000E+00  0.000E+00  0.000E+00  1.20126E+02  1.276E+00  3.339E+00  6.500E-04  1.163E-03 -8.404E-06
   1    4   72     1    72    2.9172E+00  1.1539E-03   2.9161E+00  0.000E+00  0.000E+00  0.000E+00  1.19826E+02  1.276E+00  3.339E+00  6.499E-04  1.162E-03 -8.441E-06
   1    4   73     1    73    2.9161E+00  1.1536E-03   2.9149E+00  0.000E+00  0.000E+00  0.000E+00  1.19525E+02  1.275E+00  3.338E+00  6.498E-04  1.162E-03 -8.570E-06
   1    4   74     1    74    2.9149E+00  1.1532E-03   2.9138E+00  0.000E+00  0.000E+00  0.000E+00  1.19225E+02  1.275E+00  3.338E+00  6.497E-04  1.162E-03 -8.804E-06
   1    4   75     1    75    2.9138E+00  1.1529E-03   2.9126E+00  0.000E+00  0.000E+00  0.000E+00  1.18925E+02  1.275E+00  3.338E+00  6.496E-04  1.162E-03 -9.151E-06
   1    4   76     1    76    2.9126E+00  1.1526E-03   2.9115E+00  0.000E+00  0.000E+00  0.000E+00  1.18625E+02  1.275E+00  3.337E+00  6.495E-04  1.162E-03 -9.616E-06
   1    4   77     1    77    2.9115E+00  1.1523E-03   2.9103E+00  0.000E+00  0.000E+00  0.000E+00  1.18324E+02  1.274E+00  3.337E+00  6.494E-04  1.162E-03 -1.019E-05
   1    4   78     1    78    2.9103E+00  1.1520E-03   2.9092E+00  0.000E+00  0.000E+00  0.000E+00  1.18024E+02  1.274E+00  3.337E+00  6.494E-04  1.163E-03 -1.087E-05
   1    4   79     1    79    2.9092E+00  1.1516E-03   2.9080E+00  0.000E+00  0.000E+00  0.000E+00  1.17724E+02  1.274E+00  3.336E+00  6.493E-04  1.163E-03 -1.165E-05
   1    4   80     1    80    2.9080E+00  1.1513E-03   2.9069E+00  0.000E+00  0.000E+00  0.000E+00  1.17423E+02  1.273E+00  3.336E+00  6.492E-04  1.164E-03 -1.253E-05
   1    4   81     1    81    2.9069E+00  1.1510E-03   2.9057E+00  0.000E+00  0.000E+00  0.000E+00  1.17123E+02  1.273E+00  3.336E+00  6.491E-04  1.164E-03 -1.350E-05
   1    4   82     1    82    2.9057E+00  1.1507E-03   2.9046E+00  0.000E+00  0.000E+00  0.000E+00  1.16823E+02  1.273E+00  3.335E+00  6.490E-04  1.165E-03 -1.456E-05
   1    4   83     1    83    2.9046E+00  1.1503E-03   2.9034E+00  0.000E+00  0.000E+00  0.000E+00  1.16523E+02  1.273E+00  3.335E+00  6.489E-04  1.166E-03 -1.570E-05
   1    4   84     1    84    2.9034E+00  1.1500E-03   2.9023E+00  0.000E+00  0.000E+00  0.000E+00  1.16222E+02  1.272E+00  3.335E+00  6.488E-04  1.167E-03 -1.691E-05
   1    4   85     1    85    2.9023E+00  1.1497E-03   2.9011E+00  0.000E+00  0.000E+00  0.000E+00  1.15922E+02  1.272E+00  3.335E+00  6.488E-04  1.156E-03 -6.105E-06
   1    4   86     1    86    2.9011E+00  1.1494E-03   2.9000E+00  0.000E+00  0.000E+00  0.000E+00  1.15622E+02  1.272E+00  3.334E+00  6.487E-04  1.157E-03 -7.427E-06
   1    4   87     1    87    2.9000E+00  1.1491E-03   2.8988E+00  0.000E+00  0.000E+00  0.000E+00  1.15322E+02  1.272E+00  3.334E+00  6.486E-04  1.158E-03 -8.781E-06
   1    4   88     1    88    2.8988E+00  1.1487E-03   2.8977E+00  0.000E+00  0.000E+00  0.000E+00  1.15021E+02  1.271E+00  3.334E+00  6.485E-04  1.159E-03 -1.016E-05
   1    4   89     1    89    2.8977E+00  1.1484E-03   2.8965E+00  0.000E+00  0.000E+00  0.000E+00  1.14721E+02  1.271E+00  3.333E+00  6.484E-04  1.160E-03 -1.154E-05
   1    4   90     1    90    2.8965E+00  1.1481E-03   2.8954E+00  0.000E+00  0.000E+00  0.000E+00  1.14421E+02  1.271E+00  3.333E+00  6.483E-04  1.161E-03 -1.291E-05
   1    4   91     1    91    2.8954E+00  1.1478E-03   2.8942E+00  0.000E+00  0.000E+00  0.000E+00  1.14121E+02  1.271E+00  3.333E+00  6.482E-04  1.162E-03 -1.426E-05
   1    4   92     1    92    2.8942E+00  1.1475E-03   2.8931E+00  0.000E+00  0.000E+00  0.000E+00  1.13820E+02  1.270E+00  3.332E+00  6.482E-04  1.163E-03 -1.558E-05
   1    4   93     1    93    2.8931E+00  1.1471E-03   2.8919E+00  0.000E+00  0.000E+00  0.000E+00  1.13520E+02  1.270E+00  3.332E+00  6.481E-04  1.164E-03 -1.685E-05
   1    4   94     1    94    2.8919E+00  1.1468E-03   2.8908E+00  0.000E+00  0.000E+00  0.000E+00  1.13220E+02  1.270E+00  3.332E+00  6.480E-04  1.165E-03 -1.808E-05
   1    4   95     1    95    2.8908E+00  1.1465E-03   2.8896E+00  0.000E+00  0.000E+00  0.000E+00  1.12920E+02  1.270E+00  3.331E+00  6.479E-04  1.166E-03 -1.927E-05
   1    4   96     1    96    2.8896E+00  1.1462E-03   2.8885E+00  0.000E+00  0.000E+00  0.000E+00  1.12619E+02  1.269E+00  3.331E+00  6.478E-04  1.167E-03 -2.041E-05
   1    4   97     1    97    2.8885E+00  1.1459E-03   2.8874E+00  0.000E+00  0.000E+00  0.000E+00  1.12319E+02  1.269E+00  3.331E+00  6.477E-04  1.167E-03 -2.153E-05
   1    4   98     1    98    2.8874E+00  1.1455E-03   2.8862E+00  0.000E+00  0.000E+00  0.000E+00  1.12019E+02  1.269E+00  3.330E+00  6.477E-04  1.168E-03 -2.261E-05
   1    4   99     1    99    2.8862E+00  1.1452E-03   2.8851E+00  0.000E+00  0.000E+00  0.000E+00  1.11718E+02  1.269E+00  3.330E+00  6.476E-04  1.169E-03 -2.367E-05
   1    4  100     1   100    2.8851E+00  1.1449E-03   2.8839E+00  0.000E+00  0.000E+00  0.000E+00  1.11418E+02  1.268E+00  3.330E+00  6.475E-04  1.170E-03 -2.472E-05



1
  VOLUMETRIC BUDGET FOR UNSATURATED ZONE BENEATH STREAMS AT END OF TIME STEP    30 STRESS PERIOD  39
  ------------------------------------------------------------------------------------------------

    CUMULATIVE VOLUMES             L**3    RATES FOR THIS TIME STEP         L**3/T
    ------------------                     ------------------------


          STREAM LOSS =     30939002.0000            STREAM LOSS =            0.1161
    CHANGE IN STORAGE =      1282950.6250      CHANGE IN STORAGE =        1.1625E-02
       RECHARGE TO GW =     29663362.0000         RECHARGE TO GW =            0.1045

             TOTAL IN =     30939002.0000               TOTAL IN =            0.1161

            TOTAL OUT =     30946312.0000              TOTAL OUT =            0.1161

             IN - OUT =        -7310.0000               IN - OUT =        3.1292E-07

  PERCENT DISCREPANCY =           -0.01      PERCENT DISCREPANCY =             0.00



1
  VOLUMETRIC BUDGET FOR ENTIRE MODEL AT END OF TIME STEP   30, STRESS PERIOD  39
  ------------------------------------------------------------------------------

     CUMULATIVE VOLUMES      L**3       RATES FOR THIS TIME STEP      L**3/T
     ------------------                 ------------------------

           IN:                                      IN:
           ---                                      ---
             STORAGE     =   110930840.0000               STORAGE     =           0.3779
       CONSTANT HEAD     =           0.0000         CONSTANT HEAD     =           0.0000
               WELLS     =           0.0000                 WELLS     =           0.0000
     HEAD DEP BOUNDS     =     1720154.7500       HEAD DEP BOUNDS     =       8.5004E-02
      STREAM LEAKAGE     =    29662994.0000        STREAM LEAKAGE     =           0.1045

                TOTAL IN =   142313984.0000                  TOTAL IN =           0.5674

          OUT:                                     OUT:
          ----                                     ----
             STORAGE     =     3028030.7500               STORAGE     =           0.0000
       CONSTANT HEAD     =           0.0000         CONSTANT HEAD     =           0.0000
               WELLS     =   122926624.0000                 WELLS     =           0.5674
     HEAD DEP BOUNDS     =    16359348.0000       HEAD DEP BOUNDS     =           0.0000
      STREAM LEAKAGE     =           0.0000        STREAM LEAKAGE     =           0.0000

               TOTAL OUT =   142314000.0000                 TOTAL OUT =           0.5674

                IN - OUT =         -16.0000                  IN - OUT =           0.0000

     PERCENT DISCREPANCY =          -0.00         PERCENT DISCREPANCY =           0.00






         TIME SUMMARY AT END OF TIME STEP   30 IN STRESS PERIOD   39
                    SECONDS     MINUTES      HOURS       DAYS        YEARS
                    -----------------------------------------------------------
   TIME STEP LENGTH 2.49961E+05  4166.0      69.434      2.8931     7.92080E-03
 STRESS PERIOD TIME 2.59200E+06  43200.      720.00      30.000     8.21355E-02
         TOTAL TIME 1.01088E+08 1.68480E+06  28080.      1170.0      3.2033    
1
1
                            STRESS PERIOD NO.   40, LENGTH =   2592000.    
                            -----------------------------------------------

                              NUMBER OF TIME STEPS =    30

                               MULTIPLIER FOR DELT =     1.100

                            INITIAL TIME STEP SIZE =   15757.40    

 REUSING NON-PARAMETER WELLS FROM LAST STRESS PERIOD

      1 WELL 

 REUSING NON-PARAMETER GHB CELLS FROM LAST STRESS PERIOD

      7 GHB CELLS



 CLASSIFICATION & COUNT OF STREAM SEGMENTS BASED ON SOURCE OF INFLOW:

                HEADWATER     DIVERSION     RECEIVES TRIBUTARY FLOW
                ---------     ---------     -----------------------
                     1              0               0



                    INPUT DATA FOR EACH STREAM SEGMENT
 ---------------------------------------------------------------------------------------------

 SEGMENT    SEG.     INFLOW   OVERLAND   STREAM    STREAM   ICALC  OUTFLOW  DIVERSION PRIORITY
    NO.    LENGTH     RATE     RUNOFF      ET       PPT.    METH.  TO SEG.  FROM SEG.    NO.

      1  2.000E+04 2.460E+00 0.000E+00 0.000E+00 0.000E+00    2        0        0        0


         STREAMBED PROPERTIES AND STREAM DIMENSIONS

 SEGMENT     BED HYD. COND.      BED THICKNESS     ELEV.-TOP OF BED     WIDTH OF STREAM     DEPTH OF STREAM    STREAM ROUGHNESS
    No.     UPPER     LOWER     UPPER     LOWER     UPPER     LOWER     UPPER     LOWER     UPPER     LOWER   CHANNEL      BANK

     1  3.500E-07 3.500E-07                                                                                 3.000E-02 4.000E-02

  EIGHT POINT CROSS-SECTION DATA FOR SEGMENTS WITH ICALC = 2
    X VALUES X VALUES START FROM LEFT SIDE LOOKING DOWNSTREAM

     SEGMENT NO.        X1        X2        X3        X4        X5        X6        X7        X8
            1      0.000E+00 2.000E+00 4.000E+00 6.000E+00 8.000E+00 1.000E+01 1.200E+01 1.400E+01

    Z VALUES ARE RELATIVE TO STREAMBED ELEVATION

     SEGMENT NO.          Z1        Z2        Z3        Z4        Z5        Z6        Z7        Z8
            1      6.000E+00 4.500E+00 3.500E+00 0.000E+00 3.000E-01 3.500E+00 4.500E+00 6.000E+00



 
 SOLVING FOR HEAD 
                                                   Max.-Head-Change                         Max.-Flux-Residual
  Residual-Control   Outer-Iter.   Inner-Iter.     Column Row Layer    Maximum-Head-Change  Column Row Layer    Maximum-Flux-Residual          L2-NORM 
          0                 1           2             1    1     1      -0.5100468469E-02      50    3    1         0.2405690085E-01      0.3432218418E-01
          0                 2           2             1    1     1       0.4977806303E-03      50    3    1        -0.2772328960E-02      0.3838028861E-02
          0                 3           1             1    1     1      -0.4389331557E-04      50    3    1         0.2452002225E-03      0.3408266008E-03
          0                 4           1             1    1     1       0.3455930302E-05      50    3    1        -0.1967400081E-04      0.2743802236E-04
          0                 5           1             1    1     1      -0.2394401837E-06      50    3    1         0.1382848923E-05      0.1934579004E-05

    ------------------------------------------------
       NWT REQUIRED            5 OUTER ITERATIONS 
       AND A TOTAL OF          7 INNER ITERATIONS.
    ------------------------------------------------

 NO OUTPUT CONTROL FOR STRESS PERIOD   40   TIME STEP    1
 
 WELLS WITH REDUCED PUMPING FOR STRESS PERIOD    40 TIME STEP     1
   LAY   ROW   COL         APPL.Q          ACT.Q        GW-HEAD       CELL-BOT
     1     3    50  -0.137023E+01  -0.324373E+00   0.354153E-03   0.000000E+00
     1     5    55  -0.137023E+01  -0.242925E+00   0.297776E-03   0.000000E+00
 
 
 SOLVING FOR HEAD 
                                                   Max.-Head-Change                         Max.-Flux-Residual
  Residual-Control   Outer-Iter.   Inner-Iter.     Column Row Layer    Maximum-Head-Change  Column Row Layer    Maximum-Flux-Residual          L2-NORM 
          0                 1           2             1    1     1      -0.5608899142E-02       1    3    1        -0.1060881159E-02      0.1652933620E-01
          0                 2           2             1    1     1       0.5463890713E-03       1    3    1         0.1060873221E-03      0.1603712117E-02
          0                 3           1             1    1     1      -0.4809946478E-04       1    3    1        -0.9547912711E-05      0.1459516347E-03
          0                 4           1             1    1     1       0.3781716569E-05       1    3    1         0.7647876714E-06      0.1193992215E-04
          0                 5           1             1    1     1      -0.2617108977E-06       1    3    1        -0.5376383072E-07      0.8549027481E-06

    ------------------------------------------------
       NWT REQUIRED            5 OUTER ITERATIONS 
       AND A TOTAL OF          7 INNER ITERATIONS.
    ------------------------------------------------

 NO OUTPUT CONTROL FOR STRESS PERIOD   40   TIME STEP    2
 
 WELLS WITH REDUCED PUMPING FOR STRESS PERIOD    40 TIME STEP     2
   LAY   ROW   COL         APPL.Q          ACT.Q        GW-HEAD       CELL-BOT
     1     3    50  -0.137023E+01  -0.324323E+00   0.354122E-03   0.000000E+00
     1     5    55  -0.137023E+01  -0.242886E+00   0.297749E-03   0.000000E+00
 
 
 SOLVING FOR HEAD 
                                                   Max.-Head-Change                         Max.-Flux-Residual
  Residual-Control   Outer-Iter.   Inner-Iter.     Column Row Layer    Maximum-Head-Change  Column Row Layer    Maximum-Flux-Residual          L2-NORM 
          0                 1           2             1    1     1      -0.6167842373E-02       1    2    1        -0.1060726827E-02      0.1651597848E-01
          0                 2           2             1    1     1       0.5996566904E-03       1    2    1         0.1060723568E-03      0.1602842561E-02
          0                 3           1             1    1     1      -0.5269321224E-04       1    2    1        -0.9546544593E-05      0.1459903071E-03
          0                 4           1             1    1     1       0.4136315704E-05       1    1    1         0.7646748621E-06      0.1196570672E-04
          0                 5           1             1    1     1      -0.2858732201E-06       1    1    1        -0.5375591172E-07      0.8587306007E-06

    ------------------------------------------------
       NWT REQUIRED            5 OUTER ITERATIONS 
       AND A TOTAL OF          7 INNER ITERATIONS.
    ------------------------------------------------

 NO OUTPUT CONTROL FOR STRESS PERIOD   40   TIME STEP    3
 
 WELLS WITH REDUCED PUMPING FOR STRESS PERIOD    40 TIME STEP     3
   LAY   ROW   COL         APPL.Q          ACT.Q        GW-HEAD       CELL-BOT
     1     3    50  -0.136982E+01  -0.324267E+00   0.354147E-03   0.000000E+00
     1     5    55  -0.136982E+01  -0.242842E+00   0.297768E-03   0.000000E+00
 
 
 SOLVING FOR HEAD 
                                                   Max.-Head-Change                         Max.-Flux-Residual
  Residual-Control   Outer-Iter.   Inner-Iter.     Column Row Layer    Maximum-Head-Change  Column Row Layer    Maximum-Flux-Residual          L2-NORM 
          0                 1           2             1    1     1      -0.6782306580E-02       1    1    1        -0.1060576720E-02      0.1650971997E-01
          0                 2           2             1    1     1       0.6580270713E-03       1    1    1         0.1060574888E-03      0.1602153744E-02
          0                 3           1             1    1     1      -0.5770939004E-04       1    1    1        -0.9545194711E-05      0.1460327139E-03
          0                 4           1             1    1     1       0.4522118269E-05       1    1    1         0.7645700322E-06      0.1199232286E-04
          0                 5           1             1    1     1      -0.3120684205E-06       1    7    1        -0.5374853407E-07      0.8627510502E-06

    ------------------------------------------------
       NWT REQUIRED            5 OUTER ITERATIONS 
       AND A TOTAL OF          7 INNER ITERATIONS.
    ------------------------------------------------

 NO OUTPUT CONTROL FOR STRESS PERIOD   40   TIME STEP    4
 
 WELLS WITH REDUCED PUMPING FOR STRESS PERIOD    40 TIME STEP     4
   LAY   ROW   COL         APPL.Q          ACT.Q        GW-HEAD       CELL-BOT
     1     3    50  -0.137019E+01  -0.324206E+00   0.354054E-03   0.000000E+00
     1     5    55  -0.137019E+01  -0.242794E+00   0.297691E-03   0.000000E+00
 
 
 SOLVING FOR HEAD 
                                                   Max.-Head-Change                         Max.-Flux-Residual
  Residual-Control   Outer-Iter.   Inner-Iter.     Column Row Layer    Maximum-Head-Change  Column Row Layer    Maximum-Flux-Residual          L2-NORM 
          0                 1           2             1    1     1      -0.7457794975E-02       1    1    1        -0.1060413203E-02      0.1652860788E-01
          0                 2           2             1    1     1       0.7219874756E-03       1    1    1         0.1060410981E-03      0.1602616566E-02
          0                 3           1             1    1     1      -0.6318619243E-04       1    1    1        -0.9543723628E-05      0.1461243669E-03
          0                 4           1             1    1     1       0.4941734660E-05       1    1    1         0.7644521460E-06      0.1202166335E-04
          0                 5           1             1    1     1      -0.3404496453E-06       1    7    1        -0.5374024914E-07      0.8670382225E-06

    ------------------------------------------------
       NWT REQUIRED            5 OUTER ITERATIONS 
       AND A TOTAL OF          7 INNER ITERATIONS.
    ------------------------------------------------

 NO OUTPUT CONTROL FOR STRESS PERIOD   40   TIME STEP    5
 
 WELLS WITH REDUCED PUMPING FOR STRESS PERIOD    40 TIME STEP     5
   LAY   ROW   COL         APPL.Q          ACT.Q        GW-HEAD       CELL-BOT
     1     3    50  -0.137009E+01  -0.324139E+00   0.354026E-03   0.000000E+00
     1     5    55  -0.137009E+01  -0.242742E+00   0.297666E-03   0.000000E+00
 
 
 SOLVING FOR HEAD 
                                                   Max.-Head-Change                         Max.-Flux-Residual
  Residual-Control   Outer-Iter.   Inner-Iter.     Column Row Layer    Maximum-Head-Change  Column Row Layer    Maximum-Flux-Residual          L2-NORM 
          0                 1           2             1    1     1      -0.8200354087E-02       1    1    1        -0.1060231516E-02      0.1649539457E-01
          0                 2           2             1    1     1       0.7920734441E-03       1    1    1         0.1060228836E-03      0.1600532074E-02
          0                 3           1             1    1     1      -0.6916556278E-04       1    1    1        -0.9542089106E-05      0.1460808467E-03
          0                 4           1             1    1     1       0.5398020739E-05       1    1    1         0.7643211575E-06      0.1204351219E-04
          0                 5           1             1    1     1      -0.3711830479E-06       1    4    1         0.5373440004E-07      0.8709926456E-06

    ------------------------------------------------
       NWT REQUIRED            5 OUTER ITERATIONS 
       AND A TOTAL OF          7 INNER ITERATIONS.
    ------------------------------------------------

 NO OUTPUT CONTROL FOR STRESS PERIOD   40   TIME STEP    6
 
 WELLS WITH REDUCED PUMPING FOR STRESS PERIOD    40 TIME STEP     6
   LAY   ROW   COL         APPL.Q          ACT.Q        GW-HEAD       CELL-BOT
     1     3    50  -0.136992E+01  -0.324066E+00   0.354005E-03   0.000000E+00
     1     5    55  -0.136992E+01  -0.242684E+00   0.297648E-03   0.000000E+00
 
 
 SOLVING FOR HEAD 
                                                   Max.-Head-Change                         Max.-Flux-Residual
  Residual-Control   Outer-Iter.   Inner-Iter.     Column Row Layer    Maximum-Head-Change  Column Row Layer    Maximum-Flux-Residual          L2-NORM 
          0                 1           2             1    1     1      -0.9016623809E-02       1    1    1        -0.1060031114E-02      0.1648318772E-01
          0                 2           2             1    1     1       0.8688735541E-03       1    1    1         0.1060027900E-03      0.1599527922E-02
          0                 3           1             1    1     1      -0.7569359746E-04       1    1    1        -0.9540286257E-05      0.1460942167E-03
          0                 4           1             1    1     1       0.5894106181E-05       1    7    1         0.7641766735E-06      0.1206887377E-04
          0                 5           1             1    1     1      -0.4044493565E-06       1    4    1         0.5561644656E-07      0.8752612646E-06

    ------------------------------------------------
       NWT REQUIRED            5 OUTER ITERATIONS 
       AND A TOTAL OF          7 INNER ITERATIONS.
    ------------------------------------------------

 NO OUTPUT CONTROL FOR STRESS PERIOD   40   TIME STEP    7
 
 WELLS WITH REDUCED PUMPING FOR STRESS PERIOD    40 TIME STEP     7
   LAY   ROW   COL         APPL.Q          ACT.Q        GW-HEAD       CELL-BOT
     1     3    50  -0.136984E+01  -0.323985E+00   0.353966E-03   0.000000E+00
     1     5    55  -0.136984E+01  -0.242621E+00   0.297614E-03   0.000000E+00
 
 
 SOLVING FOR HEAD 
                                                   Max.-Head-Change                         Max.-Flux-Residual
  Residual-Control   Outer-Iter.   Inner-Iter.     Column Row Layer    Maximum-Head-Change  Column Row Layer    Maximum-Flux-Residual          L2-NORM 
          0                 1           2             1    1     1      -0.9913897929E-02       1    1    1        -0.1059810952E-02      0.1647781947E-01
          0                 2           2             1    1     1       0.9530351742E-03       1    1    1         0.1059807119E-03      0.1598866207E-02
          0                 3           1             1    1     1      -0.8282103668E-04       1    1    1        -0.9538305683E-05      0.1461339683E-03
          0                 4           1             1    1     1       0.6433429327E-05       1    1    1         0.7640179440E-06      0.1209676555E-04
          0                 5           1             1    1     1      -0.4404464509E-06       1    4    1         0.5745539866E-07      0.8798023147E-06

    ------------------------------------------------
       NWT REQUIRED            5 OUTER ITERATIONS 
       AND A TOTAL OF          7 INNER ITERATIONS.
    ------------------------------------------------

 NO OUTPUT CONTROL FOR STRESS PERIOD   40   TIME STEP    8
 
 WELLS WITH REDUCED PUMPING FOR STRESS PERIOD    40 TIME STEP     8
   LAY   ROW   COL         APPL.Q          ACT.Q        GW-HEAD       CELL-BOT
     1     3    50  -0.136988E+01  -0.323896E+00   0.353905E-03   0.000000E+00
     1     5    55  -0.136988E+01  -0.242552E+00   0.297562E-03   0.000000E+00
 
 
 SOLVING FOR HEAD 
                                                   Max.-Head-Change                         Max.-Flux-Residual
  Residual-Control   Outer-Iter.   Inner-Iter.     Column Row Layer    Maximum-Head-Change  Column Row Layer    Maximum-Flux-Residual          L2-NORM 
          0                 1           2             1    1     1      -0.1090018469E-01       1    1    1        -0.1059569546E-02      0.1647671788E-01
          0                 2           2             1    1     1       0.1045270218E-02       1    1    1         0.1059564995E-03      0.1598815234E-02
          0                 3           1             1    1     1      -0.9060375461E-04       1    1    1        -0.9536134023E-05      0.1462190892E-03
          0                 4           1             1    1     1       0.7019769326E-05       1    7    1         0.7638438868E-06      0.1212735296E-04
          0                 5           1             1    1     1      -0.4793903881E-06       1    4    1         0.5924574964E-07      0.8845510277E-06

    ------------------------------------------------
       NWT REQUIRED            5 OUTER ITERATIONS 
       AND A TOTAL OF          7 INNER ITERATIONS.
    ------------------------------------------------

 NO OUTPUT CONTROL FOR STRESS PERIOD   40   TIME STEP    9
 
 WELLS WITH REDUCED PUMPING FOR STRESS PERIOD    40 TIME STEP     9
   LAY   ROW   COL         APPL.Q          ACT.Q        GW-HEAD       CELL-BOT
     1     3    50  -0.136994E+01  -0.323799E+00   0.353834E-03   0.000000E+00
     1     5    55  -0.136994E+01  -0.242476E+00   0.297502E-03   0.000000E+00
 
 
 SOLVING FOR HEAD 
                                                   Max.-Head-Change                         Max.-Flux-Residual
  Residual-Control   Outer-Iter.   Inner-Iter.     Column Row Layer    Maximum-Head-Change  Column Row Layer    Maximum-Flux-Residual          L2-NORM 
          0                 1           2             1    1     1      -0.1198427968E-01       1    1    1        -0.1059305033E-02      0.1647173333E-01
          0                 2           2             1    1     1       0.1146362039E-02       1    1    1         0.1059299654E-03      0.1597965232E-02
          0                 3           1             1    1     1      -0.9910334508E-04       1    1    1        -0.9533754525E-05      0.1462206708E-03
          0                 4           1             1    1     1       0.7657285528E-05       1    7    1         0.7636531727E-06      0.1215127149E-04
          0                 5           1             1    1     1      -0.5215183555E-06       1    4    1         0.6098235517E-07      0.8889108112E-06

    ------------------------------------------------
       NWT REQUIRED            5 OUTER ITERATIONS 
       AND A TOTAL OF          7 INNER ITERATIONS.
    ------------------------------------------------

 NO OUTPUT CONTROL FOR STRESS PERIOD   40   TIME STEP   10
 
 WELLS WITH REDUCED PUMPING FOR STRESS PERIOD    40 TIME STEP    10
   LAY   ROW   COL         APPL.Q          ACT.Q        GW-HEAD       CELL-BOT
     1     3    50  -0.136988E+01  -0.323694E+00   0.353776E-03   0.000000E+00
     1     5    55  -0.136988E+01  -0.242392E+00   0.297451E-03   0.000000E+00
 
 
 SOLVING FOR HEAD 
                                                   Max.-Head-Change                         Max.-Flux-Residual
  Residual-Control   Outer-Iter.   Inner-Iter.     Column Row Layer    Maximum-Head-Change  Column Row Layer    Maximum-Flux-Residual          L2-NORM 
          0                 1           2             1    1     1      -0.1317583626E-01       1    1    1        -0.1059015220E-02      0.1644946189E-01
          0                 2           2             1    1     1       0.1257172077E-02       1    1    1         0.1059008891E-03      0.1596308848E-02
          0                 3           2             1    1     1      -0.1083888402E-03       1    1    1        -0.9531147473E-05      0.1461904503E-03
          0                 4           1             1    1     1       0.8351784528E-05       1    7    1         0.7634442136E-06      0.1217610484E-04
          0                 5           1             1    1     1      -0.5671698798E-06       1    4    1         0.6266871111E-07      0.8933995968E-06

    ------------------------------------------------
       NWT REQUIRED            5 OUTER ITERATIONS 
       AND A TOTAL OF          8 INNER ITERATIONS.
    ------------------------------------------------

 NO OUTPUT CONTROL FOR STRESS PERIOD   40   TIME STEP   11
 
 WELLS WITH REDUCED PUMPING FOR STRESS PERIOD    40 TIME STEP    11
   LAY   ROW   COL         APPL.Q          ACT.Q        GW-HEAD       CELL-BOT
     1     3    50  -0.137005E+01  -0.323579E+00   0.353680E-03   0.000000E+00
     1     5    55  -0.137005E+01  -0.242301E+00   0.297369E-03   0.000000E+00
 
 
 SOLVING FOR HEAD 
                                                   Max.-Head-Change                         Max.-Flux-Residual
  Residual-Control   Outer-Iter.   Inner-Iter.     Column Row Layer    Maximum-Head-Change  Column Row Layer    Maximum-Flux-Residual          L2-NORM 
          0                 1           2             1    1     1      -0.1448545156E-01       1    1    1        -0.1058697609E-02      0.1645186111E-01
          0                 2           2             1    1     1       0.1378647923E-02       1    1    1         0.1058690193E-03      0.1595740936E-02
          0                 3           2             1    1     1      -0.1185335232E-03       1    1    1        -0.9528290381E-05      0.1461916176E-03
          0                 4           1             1    1     1       0.9106643326E-05       1    1    1         0.7632152119E-06      0.1219942520E-04
          0                 5           1             1    1     1      -0.6165197053E-06       1    4    1         0.6428778221E-07      0.8977308977E-06

    ------------------------------------------------
       NWT REQUIRED            5 OUTER ITERATIONS 
       AND A TOTAL OF          8 INNER ITERATIONS.
    ------------------------------------------------

 NO OUTPUT CONTROL FOR STRESS PERIOD   40   TIME STEP   12
 
 WELLS WITH REDUCED PUMPING FOR STRESS PERIOD    40 TIME STEP    12
   LAY   ROW   COL         APPL.Q          ACT.Q        GW-HEAD       CELL-BOT
     1     3    50  -0.137007E+01  -0.323454E+00   0.353598E-03   0.000000E+00
     1     5    55  -0.137007E+01  -0.242201E+00   0.297297E-03   0.000000E+00
 
 
 SOLVING FOR HEAD 
                                                   Max.-Head-Change                         Max.-Flux-Residual
  Residual-Control   Outer-Iter.   Inner-Iter.     Column Row Layer    Maximum-Head-Change  Column Row Layer    Maximum-Flux-Residual          L2-NORM 
          0                 1           2             1    1     1      -0.1592475508E-01       1    1    1        -0.1058349404E-02      0.1642170580E-01
          0                 2           2             1    1     1       0.1511831572E-02       1    1    1         0.1058340748E-03      0.1593432916E-02
          0                 3           2             1    1     1      -0.1296207099E-03       1    1    1        -0.9525158077E-05      0.1461024113E-03
          0                 4           1             1    1     1       0.9928277944E-05       1    1    1         0.7629641381E-06      0.1221745963E-04
          0                 5           1             1    1     1      -0.6699336290E-06       1    4    1         0.6584137324E-07      0.9017249538E-06

    ------------------------------------------------
       NWT REQUIRED            5 OUTER ITERATIONS 
       AND A TOTAL OF          8 INNER ITERATIONS.
    ------------------------------------------------

 NO OUTPUT CONTROL FOR STRESS PERIOD   40   TIME STEP   13
 
 WELLS WITH REDUCED PUMPING FOR STRESS PERIOD    40 TIME STEP    13
   LAY   ROW   COL         APPL.Q          ACT.Q        GW-HEAD       CELL-BOT
     1     3    50  -0.137007E+01  -0.323315E+00   0.353510E-03   0.000000E+00
     1     5    55  -0.137007E+01  -0.242091E+00   0.297221E-03   0.000000E+00
 
 
 SOLVING FOR HEAD 
                                                   Max.-Head-Change                         Max.-Flux-Residual
  Residual-Control   Outer-Iter.   Inner-Iter.     Column Row Layer    Maximum-Head-Change  Column Row Layer    Maximum-Flux-Residual          L2-NORM 
          0                 1           2             1    1     1      -0.1750650526E-01       1    1    1        -0.1057967500E-02      0.1641083672E-01
          0                 2           2             1    1     1       0.1657868384E-02       1    1    1         0.1057957434E-03      0.1592363043E-02
          0                 3           2             1    1     1      -0.1417414752E-03       1    1    1        -0.9521722625E-05      0.1460950670E-03
          0                 4           1             1    1     1       0.1082297171E-04       1    7    1         0.7626887593E-06      0.1224092422E-04
          0                 5           1             1    1     1      -0.7277574773E-06       1    4    1         0.6732617308E-07      0.9060304896E-06

    ------------------------------------------------
       NWT REQUIRED            5 OUTER ITERATIONS 
       AND A TOTAL OF          8 INNER ITERATIONS.
    ------------------------------------------------

 NO OUTPUT CONTROL FOR STRESS PERIOD   40   TIME STEP   14
 
 WELLS WITH REDUCED PUMPING FOR STRESS PERIOD    40 TIME STEP    14
   LAY   ROW   COL         APPL.Q          ACT.Q        GW-HEAD       CELL-BOT
     1     3    50  -0.137003E+01  -0.323162E+00   0.353420E-03   0.000000E+00
     1     5    55  -0.137003E+01  -0.241967E+00   0.297140E-03   0.000000E+00
 
 
 SOLVING FOR HEAD 
                                                   Max.-Head-Change                         Max.-Flux-Residual
  Residual-Control   Outer-Iter.   Inner-Iter.     Column Row Layer    Maximum-Head-Change  Column Row Layer    Maximum-Flux-Residual          L2-NORM 
          0                 1           2             1    1     1      -0.1924469477E-01       1    1    1        -0.1057548465E-02      0.1642614875E-01
          0                 2           2             1    1     1       0.1818016781E-02       1    1    1         0.1057536802E-03      0.1593087357E-02
          0                 3           2             1    1     1      -0.1549961478E-03       1    1    1        -0.9517953160E-05      0.1461827570E-03
          0                 4           1             1    1     1       0.1179766269E-04       1    1    1         0.7623866018E-06      0.1226800550E-04
          0                 5           1             1    1     1      -0.7903652161E-06       1    4    1         0.6873914771E-07      0.9103557574E-06

    ------------------------------------------------
       NWT REQUIRED            5 OUTER ITERATIONS 
       AND A TOTAL OF          8 INNER ITERATIONS.
    ------------------------------------------------

 NO OUTPUT CONTROL FOR STRESS PERIOD   40   TIME STEP   15
 
 WELLS WITH REDUCED PUMPING FOR STRESS PERIOD    40 TIME STEP    15
   LAY   ROW   COL         APPL.Q          ACT.Q        GW-HEAD       CELL-BOT
     1     3    50  -0.137003E+01  -0.323008E+00   0.353323E-03   0.000000E+00
     1     5    55  -0.137003E+01  -0.241836E+00   0.297051E-03   0.000000E+00
 
 
 SOLVING FOR HEAD 
                                                   Max.-Head-Change                         Max.-Flux-Residual
  Residual-Control   Outer-Iter.   Inner-Iter.     Column Row Layer    Maximum-Head-Change  Column Row Layer    Maximum-Flux-Residual          L2-NORM 
          0                 1           2             1    1     1      -0.2115466530E-01       1    1    1        -0.1057088514E-02      0.1640273047E-01
          0                 2           2             1    1     1       0.1993658775E-02       1    1    1         0.1057075045E-03      0.1591024655E-02
          0                 3           2             1    1     1      -0.1694951805E-03       1    1    1        -0.9513815591E-05      0.1460847100E-03
          0                 4           1             1    1     1       0.1286000180E-04       1    7    1         0.7620549325E-06      0.1228295749E-04
          0                 5           1             1    1     1      -0.8581557253E-06       2    4    1         0.7007811931E-07      0.9138309171E-06

    ------------------------------------------------
       NWT REQUIRED            5 OUTER ITERATIONS 
       AND A TOTAL OF          8 INNER ITERATIONS.
    ------------------------------------------------

 NO OUTPUT CONTROL FOR STRESS PERIOD   40   TIME STEP   16
 
 WELLS WITH REDUCED PUMPING FOR STRESS PERIOD    40 TIME STEP    16
   LAY   ROW   COL         APPL.Q          ACT.Q        GW-HEAD       CELL-BOT
     1     3    50  -0.137003E+01  -0.322851E+00   0.353223E-03   0.000000E+00
     1     5    55  -0.137003E+01  -0.241704E+00   0.296959E-03   0.000000E+00
 
 
 SOLVING FOR HEAD 
                                                   Max.-Head-Change                         Max.-Flux-Residual
  Residual-Control   Outer-Iter.   Inner-Iter.     Column Row Layer    Maximum-Head-Change  Column Row Layer    Maximum-Flux-Residual          L2-NORM 
          0                 1           2             1    1     1      -0.2325323254E-01       1    1    1        -0.1056583474E-02      0.1636538747E-01
          0                 2           2             1    1     1       0.2186311359E-02       1    1    1         0.1056567967E-03      0.1587960196E-02
          0                 3           2             1    1     1      -0.1853600867E-03       1    1    1        -0.9509272360E-05      0.1459148914E-03
          0                 4           1             1    1     1       0.1401841381E-04       1    1    1         0.7616907389E-06      0.1229227144E-04
          0                 5           1             1    1     1      -0.9315485182E-06       2    4    1         0.7135841784E-07      0.9167499392E-06

    ------------------------------------------------
       NWT REQUIRED            5 OUTER ITERATIONS 
       AND A TOTAL OF          8 INNER ITERATIONS.
    ------------------------------------------------

 NO OUTPUT CONTROL FOR STRESS PERIOD   40   TIME STEP   17
 
 WELLS WITH REDUCED PUMPING FOR STRESS PERIOD    40 TIME STEP    17
   LAY   ROW   COL         APPL.Q          ACT.Q        GW-HEAD       CELL-BOT
     1     3    50  -0.137006E+01  -0.322685E+00   0.353114E-03   0.000000E+00
     1     5    55  -0.137006E+01  -0.241568E+00   0.296862E-03   0.000000E+00
 
 
 SOLVING FOR HEAD 
                                                   Max.-Head-Change                         Max.-Flux-Residual
  Residual-Control   Outer-Iter.   Inner-Iter.     Column Row Layer    Maximum-Head-Change  Column Row Layer    Maximum-Flux-Residual          L2-NORM 
          0                 1           2             1    1     1      -0.2555881662E-01       1    1    1        -0.1056028749E-02      0.1634607539E-01
          0                 2           2             1    1     1       0.2397638342E-02       1    1    1         0.1056010947E-03      0.1586182708E-02
          0                 3           2             1    1     1      -0.2027244035E-03       1    1    1        -0.9504282071E-05      0.1458371209E-03
          0                 4           1             1    1     1       0.1528215294E-04       1    1    1         0.7612906998E-06      0.1230771706E-04
          0                 5           1             1    1     1      -0.1010972950E-05       2    4    1         0.7256593193E-07      0.9198548445E-06
          0                 6           1             1    1     1       0.5782966746E-07       2    4    1        -0.5619888555E-08      0.5920701358E-07

    ------------------------------------------------
       NWT REQUIRED            6 OUTER ITERATIONS 
       AND A TOTAL OF          9 INNER ITERATIONS.
    ------------------------------------------------

 NO OUTPUT CONTROL FOR STRESS PERIOD   40   TIME STEP   18
 
 WELLS WITH REDUCED PUMPING FOR STRESS PERIOD    40 TIME STEP    18
   LAY   ROW   COL         APPL.Q          ACT.Q        GW-HEAD       CELL-BOT
     1     3    50  -0.137005E+01  -0.322506E+00   0.353003E-03   0.000000E+00
     1     5    55  -0.137005E+01  -0.241426E+00   0.296766E-03   0.000000E+00
 
 
 SOLVING FOR HEAD 
                                                   Max.-Head-Change                         Max.-Flux-Residual
  Residual-Control   Outer-Iter.   Inner-Iter.     Column Row Layer    Maximum-Head-Change  Column Row Layer    Maximum-Flux-Residual          L2-NORM 
          0                 1           2             1    1     1      -0.2809159668E-01       1    7    1        -0.1055420075E-02      0.1633399618E-01
          0                 2           2             1    1     1       0.2629464489E-02       1    7    1         0.1055399694E-03      0.1585023335E-02
          0                 3           2             1    1     1      -0.2217348546E-03       1    7    1        -0.9498806356E-05      0.1457958574E-03
          0                 4           1             1    1     1       0.1666137285E-04       1    1    1         0.7608517496E-06      0.1232412026E-04
          0                 5           1             1    1     1      -0.1096855905E-05       2    4    1         0.7370047328E-07      0.9226614851E-06
          0                 6           1             1    1     1       0.6240489405E-07       2    4    1        -0.5728210795E-08      0.5952695006E-07

    ------------------------------------------------
       NWT REQUIRED            6 OUTER ITERATIONS 
       AND A TOTAL OF          9 INNER ITERATIONS.
    ------------------------------------------------

 NO OUTPUT CONTROL FOR STRESS PERIOD   40   TIME STEP   19
 
 WELLS WITH REDUCED PUMPING FOR STRESS PERIOD    40 TIME STEP    19
   LAY   ROW   COL         APPL.Q          ACT.Q        GW-HEAD       CELL-BOT
     1     3    50  -0.136997E+01  -0.322346E+00   0.352913E-03   0.000000E+00
     1     5    55  -0.136997E+01  -0.241275E+00   0.296670E-03   0.000000E+00
 
 
 SOLVING FOR HEAD 
                                                   Max.-Head-Change                         Max.-Flux-Residual
  Residual-Control   Outer-Iter.   Inner-Iter.     Column Row Layer    Maximum-Head-Change  Column Row Layer    Maximum-Flux-Residual          L2-NORM 
          0                 1           2             1    1     1      -0.3087363774E-01       1    7    1        -0.1054750624E-02      0.1635100542E-01
          0                 2           2             1    1     1       0.2883786145E-02       1    7    1         0.1054727349E-03      0.1585317527E-02
          0                 3           2             1    1     1      -0.2425521323E-03       1    7    1        -0.9492783731E-05      0.1457872157E-03
          0                 4           1             1    1     1       0.1816715430E-04       1    7    1         0.7603689474E-06      0.1233758615E-04
          0                 5           1             1    1     1      -0.1189600392E-05       2    4    1         0.7476139174E-07      0.9247014529E-06
          0                 6           1             1    1     1       0.6727866570E-07       2    4    1        -0.5828905358E-08      0.5976997818E-07

    ------------------------------------------------
       NWT REQUIRED            6 OUTER ITERATIONS 
       AND A TOTAL OF          9 INNER ITERATIONS.
    ------------------------------------------------

 NO OUTPUT CONTROL FOR STRESS PERIOD   40   TIME STEP   20
 
 WELLS WITH REDUCED PUMPING FOR STRESS PERIOD    40 TIME STEP    20
   LAY   ROW   COL         APPL.Q          ACT.Q        GW-HEAD       CELL-BOT
     1     3    50  -0.136996E+01  -0.322223E+00   0.352838E-03   0.000000E+00
     1     5    55  -0.136996E+01  -0.241185E+00   0.296610E-03   0.000000E+00
 
 
 SOLVING FOR HEAD 
                                                   Max.-Head-Change                         Max.-Flux-Residual
  Residual-Control   Outer-Iter.   Inner-Iter.     Column Row Layer    Maximum-Head-Change  Column Row Layer    Maximum-Flux-Residual          L2-NORM 
          0                 1           2             1    1     1      -0.3392909465E-01       1    7    1        -0.1054014496E-02      0.1629136811E-01
          0                 2           2             1    1     1       0.3162790461E-02       1    7    1         0.1053987976E-03      0.1580899206E-02
          0                 3           2             1    1     1      -0.2653525195E-03       1    7    1        -0.9486161047E-05      0.1455365179E-03
          0                 4           1             1    1     1       0.1981159002E-04       1    7    1         0.7598380303E-06      0.1233967354E-04
          0                 5           1             1    1     1      -0.1289552962E-05       2    4    1         0.7574897865E-07      0.9257868193E-06
          0                 6           1             1    1     1       0.7244499329E-07       2    4    1        -0.5921542368E-08      0.5992982928E-07

    ------------------------------------------------
       NWT REQUIRED            6 OUTER ITERATIONS 
       AND A TOTAL OF          9 INNER ITERATIONS.
    ------------------------------------------------

 NO OUTPUT CONTROL FOR STRESS PERIOD   40   TIME STEP   21
 
 WELLS WITH REDUCED PUMPING FOR STRESS PERIOD    40 TIME STEP    21
   LAY   ROW   COL         APPL.Q          ACT.Q        GW-HEAD       CELL-BOT
     1     3    50  -0.137000E+01  -0.322069E+00   0.352734E-03   0.000000E+00
     1     5    55  -0.137000E+01  -0.241083E+00   0.296535E-03   0.000000E+00
 
 
 SOLVING FOR HEAD 
                                                   Max.-Head-Change                         Max.-Flux-Residual
  Residual-Control   Outer-Iter.   Inner-Iter.     Column Row Layer    Maximum-Head-Change  Column Row Layer    Maximum-Flux-Residual          L2-NORM 
          0                 1           2             1    1     1      -0.3728436952E-01       1    7    1        -0.1053205101E-02      0.1626826167E-01
          0                 2           2             1    1     1       0.3468868489E-02       1    7    1         0.1053174950E-03      0.1578678250E-02
          0                 3           2             1    1     1      -0.2903288577E-03       1    7    1        -0.9478878967E-05      0.1453855111E-03
          0                 4           1             1    1     1       0.2160780647E-04       1    7    1         0.7592542453E-06      0.1234393409E-04
          0                 5           1             1    1     1      -0.1396962105E-05       2    4    1         0.7666349333E-07      0.9262233008E-06
          0                 6           1             1    1     1       0.7788381849E-07       2    4    1        -0.6005603126E-08      0.6000286348E-07

    ------------------------------------------------
       NWT REQUIRED            6 OUTER ITERATIONS 
       AND A TOTAL OF          9 INNER ITERATIONS.
    ------------------------------------------------

 NO OUTPUT CONTROL FOR STRESS PERIOD   40   TIME STEP   22
 
 WELLS WITH REDUCED PUMPING FOR STRESS PERIOD    40 TIME STEP    22
   LAY   ROW   COL         APPL.Q          ACT.Q        GW-HEAD       CELL-BOT
     1     3    50  -0.136999E+01  -0.321879E+00   0.352615E-03   0.000000E+00
     1     5    55  -0.136999E+01  -0.240954E+00   0.296447E-03   0.000000E+00
 
 
 SOLVING FOR HEAD 
                                                   Max.-Head-Change                         Max.-Flux-Residual
  Residual-Control   Outer-Iter.   Inner-Iter.     Column Row Layer    Maximum-Head-Change  Column Row Layer    Maximum-Flux-Residual          L2-NORM 
          0                 1           2             1    1     1      -0.4096830289E-01       1    7    1        -0.1052315073E-02      0.1629733081E-01
          0                 2           2             1    1     1       0.3804631750E-02       1    1    1         0.1052280857E-03      0.1578875308E-02
          0                 3           2             1    1     1      -0.3176918213E-03       1    7    1        -0.9470871102E-05      0.1453419178E-03
          0                 4           1             1    1     1       0.2356998660E-04      27    4    1        -0.7672002766E-06      0.1235332516E-04
          0                 5           1             1    1     1      -0.1511915255E-05       2    4    1         0.7750528752E-07      0.9263136128E-06
          0                 6           1             1    1     1       0.8355518892E-07       2    4    1        -0.6080519199E-08      0.6001369351E-07

    ------------------------------------------------
       NWT REQUIRED            6 OUTER ITERATIONS 
       AND A TOTAL OF          9 INNER ITERATIONS.
    ------------------------------------------------

 NO OUTPUT CONTROL FOR STRESS PERIOD   40   TIME STEP   23
 
 WELLS WITH REDUCED PUMPING FOR STRESS PERIOD    40 TIME STEP    23
   LAY   ROW   COL         APPL.Q          ACT.Q        GW-HEAD       CELL-BOT
     1     3    50  -0.137002E+01  -0.321704E+00   0.352499E-03   0.000000E+00
     1     5    55  -0.137002E+01  -0.240866E+00   0.296382E-03   0.000000E+00
 
 
 SOLVING FOR HEAD 
                                                   Max.-Head-Change                         Max.-Flux-Residual
  Residual-Control   Outer-Iter.   Inner-Iter.     Column Row Layer    Maximum-Head-Change  Column Row Layer    Maximum-Flux-Residual          L2-NORM 
          0                 1           2             1    1     1      -0.4500688292E-01       1    7    1        -0.1051336270E-02      0.1629370918E-01
          0                 2           2             1    1     1       0.4168123312E-02       1    1    1         0.1051296783E-03      0.1577554047E-02
          0                 3           2             1    1     1      -0.3470210937E-03       1    7    1        -0.9462062944E-05      0.1452110035E-03
          0                 4           1             1    1     1       0.2564916773E-04       2    4    1        -0.7819492360E-06      0.1235597557E-04
          0                 5           1             1    1     1      -0.1629332160E-05       2    4    1         0.8100688476E-07      0.9250385298E-06
          0                 6           1             1    1     1       0.8909382784E-07       2    4    1        -0.6327024238E-08      0.5987514204E-07

    ------------------------------------------------
       NWT REQUIRED            6 OUTER ITERATIONS 
       AND A TOTAL OF          9 INNER ITERATIONS.
    ------------------------------------------------

 NO OUTPUT CONTROL FOR STRESS PERIOD   40   TIME STEP   24
 
 WELLS WITH REDUCED PUMPING FOR STRESS PERIOD    40 TIME STEP    24
   LAY   ROW   COL         APPL.Q          ACT.Q        GW-HEAD       CELL-BOT
     1     3    50  -0.136999E+01  -0.321981E+00   0.352679E-03   0.000000E+00
     1     5    55  -0.136999E+01  -0.241192E+00   0.296610E-03   0.000000E+00
 
 
 SOLVING FOR HEAD 
                                                   Max.-Head-Change                         Max.-Flux-Residual
  Residual-Control   Outer-Iter.   Inner-Iter.     Column Row Layer    Maximum-Head-Change  Column Row Layer    Maximum-Flux-Residual          L2-NORM 
          0                 1           2             1    1     1      -0.4938905522E-01       1    7    1        -0.1050227040E-02      0.1619814695E-01
          0                 2           2             1    1     1       0.4562029730E-02       1    1    1         0.1050175254E-03      0.1571290103E-02
          0                 3           2             1    1     1      -0.3785707407E-03       1    7    1        -0.9452027618E-05      0.1448754036E-03
          0                 4           1             1    1     1       0.2786304982E-04       1    4    1        -0.7906431811E-06      0.1235274015E-04
          0                 5           1             1    1     1      -0.1748827401E-05       2    4    1         0.8179342714E-07      0.9227951763E-06
          0                 6           1             1    1     1       0.9439657599E-07       2    4    1        -0.6377536721E-08      0.5963348531E-07

    ------------------------------------------------
       NWT REQUIRED            6 OUTER ITERATIONS 
       AND A TOTAL OF          9 INNER ITERATIONS.
    ------------------------------------------------

 NO OUTPUT CONTROL FOR STRESS PERIOD   40   TIME STEP   25
 
 WELLS WITH REDUCED PUMPING FOR STRESS PERIOD    40 TIME STEP    25
   LAY   ROW   COL         APPL.Q          ACT.Q        GW-HEAD       CELL-BOT
     1     3    50  -0.137001E+01  -0.321929E+00   0.352643E-03   0.000000E+00
     1     5    55  -0.137001E+01  -0.241209E+00   0.296620E-03   0.000000E+00
 
 
 SOLVING FOR HEAD 
                                                   Max.-Head-Change                         Max.-Flux-Residual
  Residual-Control   Outer-Iter.   Inner-Iter.     Column Row Layer    Maximum-Head-Change  Column Row Layer    Maximum-Flux-Residual          L2-NORM 
          0                 1           3             1    1     1      -0.5424396961E-01       1    7    1        -0.1047943403E-02      0.1617028980E-01
          0                 2           2             1    1     1       0.5005639397E-02       1    7    1         0.1047891504E-03      0.1568461173E-02
          0                 3           2             1    1     1      -0.4147521409E-03       1    7    1        -0.9431519019E-05      0.1446531862E-03
          0                 4           1             1    1     1       0.3044409915E-04       3    4    1        -0.7886621916E-06      0.1234833664E-04
          0                 5           1             1    1     1      -0.1887711669E-05       7    4    1         0.8230862036E-07      0.9192314993E-06
          0                 6           1             1    1     1       0.1005384435E-06       4    4    1        -0.6394660801E-08      0.5925830933E-07

    ------------------------------------------------
       NWT REQUIRED            6 OUTER ITERATIONS 
       AND A TOTAL OF         10 INNER ITERATIONS.
    ------------------------------------------------

 NO OUTPUT CONTROL FOR STRESS PERIOD   40   TIME STEP   26
 
 WELLS WITH REDUCED PUMPING FOR STRESS PERIOD    40 TIME STEP    26
   LAY   ROW   COL         APPL.Q          ACT.Q        GW-HEAD       CELL-BOT
     1     3    50  -0.137001E+01  -0.321755E+00   0.352535E-03   0.000000E+00
     1     5    55  -0.137001E+01  -0.241125E+00   0.296562E-03   0.000000E+00
 
 
 SOLVING FOR HEAD 
                                                   Max.-Head-Change                         Max.-Flux-Residual
  Residual-Control   Outer-Iter.   Inner-Iter.     Column Row Layer    Maximum-Head-Change  Column Row Layer    Maximum-Flux-Residual          L2-NORM 
          0                 1           3             3    4     1      -0.6006994468E-01       1    7    1        -0.1046406128E-02      0.1620057150E-01
          0                 2           2             1    1     1       0.5539537660E-02       1    7    1         0.1046408462E-03      0.1567111302E-02
          0                 3           2             2    1     1      -0.4587560377E-03       1    7    1        -0.9418174316E-05      0.1440852517E-03
          0                 4           1             3    1     1       0.3360934495E-04      27    4    1        -0.7921969445E-06      0.1227943078E-04
          0                 5           1             3    1     1      -0.2053096737E-05       9    4    1         0.7904041510E-07      0.9076785362E-06
          0                 6           1             1    1     1       0.1074446336E-06       9    4    1        -0.6168804134E-08      0.5824210495E-07

    ------------------------------------------------
       NWT REQUIRED            6 OUTER ITERATIONS 
       AND A TOTAL OF         10 INNER ITERATIONS.
    ------------------------------------------------

 NO OUTPUT CONTROL FOR STRESS PERIOD   40   TIME STEP   27
 
 WELLS WITH REDUCED PUMPING FOR STRESS PERIOD    40 TIME STEP    27
   LAY   ROW   COL         APPL.Q          ACT.Q        GW-HEAD       CELL-BOT
     1     3    50  -0.137000E+01  -0.321512E+00   0.352382E-03   0.000000E+00
     1     5    55  -0.137000E+01  -0.240990E+00   0.296470E-03   0.000000E+00
 
 
 SOLVING FOR HEAD 
                                                   Max.-Head-Change                         Max.-Flux-Residual
  Residual-Control   Outer-Iter.   Inner-Iter.     Column Row Layer    Maximum-Head-Change  Column Row Layer    Maximum-Flux-Residual          L2-NORM 
          0                 1           3             1    4     1      -0.6699785465E-01       2    3    1        -0.1055536945E-02      0.1630166940E-01
          0                 2           2             1    1     1       0.6152986412E-02       2    3    1         0.1055573323E-03      0.1572815330E-02
          0                 3           2             1    1     1      -0.5086868719E-03       1    5    1        -0.9499806511E-05      0.1442606136E-03
          0                 4           1             1    1     1       0.3714553682E-04      27    4    1        -0.7703010532E-06      0.1228290682E-04
          0                 5           1             1    1     1      -0.2225856266E-05       9    4    1         0.8095211257E-07      0.9005707190E-06
          0                 6           1             1    1     1       0.1139903562E-06       9    4    1        -0.6272820485E-08      0.5747933835E-07

    ------------------------------------------------
       NWT REQUIRED            6 OUTER ITERATIONS 
       AND A TOTAL OF         10 INNER ITERATIONS.
    ------------------------------------------------

 NO OUTPUT CONTROL FOR STRESS PERIOD   40   TIME STEP   28
 
 WELLS WITH REDUCED PUMPING FOR STRESS PERIOD    40 TIME STEP    28
   LAY   ROW   COL         APPL.Q          ACT.Q        GW-HEAD       CELL-BOT
     1     3    50  -0.136998E+01  -0.321219E+00   0.352201E-03   0.000000E+00
     1     5    55  -0.136998E+01  -0.240814E+00   0.296352E-03   0.000000E+00
 
 
 SOLVING FOR HEAD 
                                                   Max.-Head-Change                         Max.-Flux-Residual
  Residual-Control   Outer-Iter.   Inner-Iter.     Column Row Layer    Maximum-Head-Change  Column Row Layer    Maximum-Flux-Residual          L2-NORM 
          0                 1           3             1    1     1      -0.7346425167E-01       1    5    1        -0.1068851683E-02      0.1636389049E-01
          0                 2           2             1    1     1       0.6766875206E-02       1    5    1         0.1068743742E-03      0.1582952695E-02
          0                 3           2             1    1     1      -0.5588151881E-03       1    5    1        -0.9619556113E-05      0.1454895127E-03
          0                 4           1             1    1     1       0.4069351999E-04       1    4    1        -0.7717757491E-06      0.1240831767E-04
          0                 5           1             1    1     1      -0.2381544658E-05       9    4    1         0.8372690985E-07      0.9014792992E-06
          0                 6           1             1    1     1       0.1190060148E-06       9    4    1        -0.6385615592E-08      0.5718382026E-07

    ------------------------------------------------
       NWT REQUIRED            6 OUTER ITERATIONS 
       AND A TOTAL OF         10 INNER ITERATIONS.
    ------------------------------------------------

 NO OUTPUT CONTROL FOR STRESS PERIOD   40   TIME STEP   29
 
 WELLS WITH REDUCED PUMPING FOR STRESS PERIOD    40 TIME STEP    29
   LAY   ROW   COL         APPL.Q          ACT.Q        GW-HEAD       CELL-BOT
     1     3    50  -0.137001E+01  -0.320879E+00   0.351980E-03   0.000000E+00
     1     5    55  -0.137001E+01  -0.240605E+00   0.296203E-03   0.000000E+00
 
 
 SOLVING FOR HEAD 
                                                   Max.-Head-Change                         Max.-Flux-Residual
  Residual-Control   Outer-Iter.   Inner-Iter.     Column Row Layer    Maximum-Head-Change  Column Row Layer    Maximum-Flux-Residual          L2-NORM 
          0                 1           3             1    1     1      -0.8067375127E-01       1    5    1        -0.1065515117E-02      0.1638561026E-01
          0                 2           2             1    1     1       0.7422646795E-02       1    5    1         0.1065409127E-03      0.1586282407E-02
          0                 3           2             1    1     1      -0.6119934779E-03       1    5    1        -0.9589614773E-05      0.1458833935E-03
          0                 4           1             1    1     1       0.4440604035E-04      27    4    1        -0.7890922689E-06      0.1245254475E-04
          0                 5           1             1    1     1      -0.2520922880E-05       9    4    1         0.8524783013E-07      0.8943577598E-06
          0                 6           1             1    1     1       0.1221000612E-06       9    4    1        -0.6424603072E-08      0.5637068508E-07

    ------------------------------------------------
       NWT REQUIRED            6 OUTER ITERATIONS 
       AND A TOTAL OF         10 INNER ITERATIONS.
    ------------------------------------------------

 OUTPUT CONTROL FOR STRESS PERIOD   40   TIME STEP   30
    PRINT HEAD FOR ALL LAYERS
    SAVE HEAD FOR ALL LAYERS
    PRINT BUDGET
    SAVE BUDGET
 
 WELLS WITH REDUCED PUMPING FOR STRESS PERIOD    40 TIME STEP    30
   LAY   ROW   COL         APPL.Q          ACT.Q        GW-HEAD       CELL-BOT
     1     3    50  -0.136989E+01  -0.320486E+00   0.351750E-03   0.000000E+00
     1     5    55  -0.136989E+01  -0.240363E+00   0.296051E-03   0.000000E+00

            WELLS   PERIOD   40   STEP  30
 WELL      1   LAYER   1   ROW     3   COL    50   RATE   -0.320486    
 WELL      2   LAYER   1   ROW     5   COL    55   RATE   -0.240363    
 

  HEAD DEP BOUNDS   PERIOD   40   STEP    30
 BOUNDARY      1   LAYER   1   ROW     1   COL   100   RATE    1.340185E-02
 BOUNDARY      2   LAYER   1   ROW     2   COL   100   RATE    1.337223E-02
 BOUNDARY      3   LAYER   1   ROW     3   COL   100   RATE    1.314321E-02
 BOUNDARY      4   LAYER   1   ROW     4   COL   100   RATE    8.220823E-03
 BOUNDARY      5   LAYER   1   ROW     5   COL   100   RATE    1.314321E-02
 BOUNDARY      6   LAYER   1   ROW     6   COL   100   RATE    1.337223E-02
 BOUNDARY      7   LAYER   1   ROW     7   COL   100   RATE    1.340185E-02



 STREAM LISTING     PERIOD     40   STEP       30

 LAYER ROW COL. STREAM  RCH.   FLOW INTO    STREAM     FLOW OUT OF   OVRLND.    DIRECT     STREAM      STREAM      STREAM     STREAM  STREAMBED   FLOW TO   CHNG. UNSAT. 
                SEG.NO.  NO.   STRM. RCH.    LOSS       STRM. RCH.   RUNOFF     PRECIP       ET         HEAD        DEPTH      WIDTH  CONDCTNC.   WAT. TAB.

   1    4    1     1     1    2.4600E+00  1.0252E-03   2.4590E+00  0.000E+00  0.000E+00  0.000E+00  1.41018E+02  1.168E+00  3.210E+00  6.147E-04  9.976E-04  2.756E-05
   1    4    2     1     2    2.4590E+00  1.0249E-03   2.4579E+00  0.000E+00  0.000E+00  0.000E+00  1.40718E+02  1.168E+00  3.209E+00  6.146E-04  9.972E-04  2.765E-05
   1    4    3     1     3    2.4579E+00  1.0246E-03   2.4569E+00  0.000E+00  0.000E+00  0.000E+00  1.40417E+02  1.167E+00  3.209E+00  6.145E-04  9.969E-04  2.771E-05
   1    4    4     1     4    2.4569E+00  1.0243E-03   2.4559E+00  0.000E+00  0.000E+00  0.000E+00  1.40117E+02  1.167E+00  3.209E+00  6.145E-04  9.966E-04  2.775E-05
   1    4    5     1     5    2.4559E+00  1.0240E-03   2.4549E+00  0.000E+00  0.000E+00  0.000E+00  1.39817E+02  1.167E+00  3.208E+00  6.144E-04  9.962E-04  2.777E-05
   1    4    6     1     6    2.4549E+00  1.0237E-03   2.4539E+00  0.000E+00  0.000E+00  0.000E+00  1.39517E+02  1.167E+00  3.208E+00  6.143E-04  9.959E-04  2.777E-05
   1    4    7     1     7    2.4539E+00  1.0234E-03   2.4528E+00  0.000E+00  0.000E+00  0.000E+00  1.39216E+02  1.166E+00  3.208E+00  6.142E-04  9.957E-04  2.775E-05
   1    4    8     1     8    2.4528E+00  1.0231E-03   2.4518E+00  0.000E+00  0.000E+00  0.000E+00  1.38916E+02  1.166E+00  3.208E+00  6.141E-04  9.954E-04  2.772E-05
   1    4    9     1     9    2.4518E+00  1.0228E-03   2.4508E+00  0.000E+00  0.000E+00  0.000E+00  1.38616E+02  1.166E+00  3.207E+00  6.140E-04  9.952E-04  2.766E-05
   1    4   10     1    10    2.4508E+00  1.0226E-03   2.4498E+00  0.000E+00  0.000E+00  0.000E+00  1.38316E+02  1.166E+00  3.207E+00  6.140E-04  9.983E-04  2.428E-05
   1    4   11     1    11    2.4498E+00  1.0223E-03   2.4487E+00  0.000E+00  0.000E+00  0.000E+00  1.38015E+02  1.165E+00  3.207E+00  6.139E-04  9.998E-04  2.248E-05
   1    4   12     1    12    2.4487E+00  1.0220E-03   2.4477E+00  0.000E+00  0.000E+00  0.000E+00  1.37715E+02  1.165E+00  3.206E+00  6.138E-04  9.996E-04  2.237E-05
   1    4   13     1    13    2.4477E+00  1.0217E-03   2.4467E+00  0.000E+00  0.000E+00  0.000E+00  1.37415E+02  1.165E+00  3.206E+00  6.137E-04  9.913E-04  3.036E-05
   1    4   14     1    14    2.4467E+00  1.0214E-03   2.4457E+00  0.000E+00  0.000E+00  0.000E+00  1.37115E+02  1.165E+00  3.206E+00  6.136E-04  9.904E-04  3.103E-05
   1    4   15     1    15    2.4457E+00  1.0211E-03   2.4447E+00  0.000E+00  0.000E+00  0.000E+00  1.36814E+02  1.164E+00  3.205E+00  6.135E-04  9.903E-04  3.076E-05
   1    4   16     1    16    2.4447E+00  1.0208E-03   2.4436E+00  0.000E+00  0.000E+00  0.000E+00  1.36514E+02  1.164E+00  3.205E+00  6.135E-04  9.903E-04  3.046E-05
   1    4   17     1    17    2.4436E+00  1.0205E-03   2.4426E+00  0.000E+00  0.000E+00  0.000E+00  1.36214E+02  1.164E+00  3.205E+00  6.134E-04  9.904E-04  3.014E-05
   1    4   18     1    18    2.4426E+00  1.0202E-03   2.4416E+00  0.000E+00  0.000E+00  0.000E+00  1.35913E+02  1.164E+00  3.205E+00  6.133E-04  9.904E-04  2.978E-05
   1    4   19     1    19    2.4416E+00  1.0199E-03   2.4406E+00  0.000E+00  0.000E+00  0.000E+00  1.35613E+02  1.163E+00  3.204E+00  6.132E-04  9.905E-04  2.940E-05
   1    4   20     1    20    2.4406E+00  1.0197E-03   2.4396E+00  0.000E+00  0.000E+00  0.000E+00  1.35313E+02  1.163E+00  3.204E+00  6.131E-04  9.907E-04  2.899E-05
   1    4   21     1    21    2.4396E+00  1.0194E-03   2.4385E+00  0.000E+00  0.000E+00  0.000E+00  1.35013E+02  1.163E+00  3.204E+00  6.131E-04  9.908E-04  2.854E-05
   1    4   22     1    22    2.4385E+00  1.0191E-03   2.4375E+00  0.000E+00  0.000E+00  0.000E+00  1.34713E+02  1.163E+00  3.203E+00  6.130E-04  9.910E-04  2.807E-05
   1    4   23     1    23    2.4375E+00  1.0188E-03   2.4365E+00  0.000E+00  0.000E+00  0.000E+00  1.34412E+02  1.162E+00  3.203E+00  6.129E-04  9.912E-04  2.756E-05
   1    4   24     1    24    2.4365E+00  1.0185E-03   2.4355E+00  0.000E+00  0.000E+00  0.000E+00  1.34112E+02  1.162E+00  3.203E+00  6.128E-04  9.984E-04  2.010E-05
   1    4   25     1    25    2.4355E+00  1.0182E-03   2.4345E+00  0.000E+00  0.000E+00  0.000E+00  1.33812E+02  1.162E+00  3.202E+00  6.127E-04  1.004E-03  1.416E-05
   1    4   26     1    26    2.4345E+00  1.0179E-03   2.4334E+00  0.000E+00  0.000E+00  0.000E+00  1.33512E+02  1.161E+00  3.202E+00  6.126E-04  1.004E-03  1.353E-05
   1    4   27     1    27    2.4334E+00  1.0176E-03   2.4324E+00  0.000E+00  0.000E+00  0.000E+00  1.33211E+02  1.161E+00  3.202E+00  6.126E-04  1.006E-03  1.156E-05
   1    4   28     1    28    2.4324E+00  1.0173E-03   2.4314E+00  0.000E+00  0.000E+00  0.000E+00  1.32911E+02  1.161E+00  3.202E+00  6.125E-04  1.007E-03  1.078E-05
   1    4   29     1    29    2.4314E+00  1.0170E-03   2.4304E+00  0.000E+00  0.000E+00  0.000E+00  1.32611E+02  1.161E+00  3.201E+00  6.124E-04  1.007E-03  9.964E-06
   1    4   30     1    30    2.4304E+00  1.0168E-03   2.4294E+00  0.000E+00  0.000E+00  0.000E+00  1.32310E+02  1.160E+00  3.201E+00  6.123E-04  1.008E-03  9.115E-06
   1    4   31     1    31    2.4294E+00  1.0165E-03   2.4284E+00  0.000E+00  0.000E+00  0.000E+00  1.32010E+02  1.160E+00  3.201E+00  6.122E-04  1.008E-03  8.217E-06
   1    4   32     1    32    2.4284E+00  1.0162E-03   2.4273E+00  0.000E+00  0.000E+00  0.000E+00  1.31710E+02  1.160E+00  3.200E+00  6.122E-04  1.013E-03  3.283E-06
   1    4   33     1    33    2.4273E+00  1.0159E-03   2.4263E+00  0.000E+00  0.000E+00  0.000E+00  1.31410E+02  1.160E+00  3.200E+00  6.121E-04  1.023E-03 -7.181E-06
   1    4   34     1    34    2.4263E+00  1.0156E-03   2.4253E+00  0.000E+00  0.000E+00  0.000E+00  1.31109E+02  1.159E+00  3.200E+00  6.120E-04  1.040E-03 -2.425E-05
   1    4   35     1    35    2.4253E+00  1.0153E-03   2.4243E+00  0.000E+00  0.000E+00  0.000E+00  1.30809E+02  1.159E+00  3.199E+00  6.119E-04  1.064E-03 -4.860E-05
   1    4   36     1    36    2.4243E+00  1.0150E-03   2.4233E+00  0.000E+00  0.000E+00  0.000E+00  1.30509E+02  1.159E+00  3.199E+00  6.118E-04  1.096E-03 -8.124E-05
   1    4   37     1    37    2.4233E+00  1.0147E-03   2.4223E+00  0.000E+00  0.000E+00  0.000E+00  1.30209E+02  1.159E+00  3.199E+00  6.117E-04  1.126E-03 -1.112E-04
   1    4   38     1    38    2.4223E+00  1.0144E-03   2.4212E+00  0.000E+00  0.000E+00  0.000E+00  1.29908E+02  1.158E+00  3.199E+00  6.117E-04  1.149E-03 -1.344E-04
   1    4   39     1    39    2.4212E+00  1.0141E-03   2.4202E+00  0.000E+00  0.000E+00  0.000E+00  1.29608E+02  1.158E+00  3.198E+00  6.116E-04  1.164E-03 -1.497E-04
   1    4   40     1    40    2.4202E+00  1.0139E-03   2.4192E+00  0.000E+00  0.000E+00  0.000E+00  1.29308E+02  1.158E+00  3.198E+00  6.115E-04  1.169E-03 -1.552E-04
   1    4   41     1    41    2.4192E+00  1.0136E-03   2.4182E+00  0.000E+00  0.000E+00  0.000E+00  1.29008E+02  1.158E+00  3.198E+00  6.114E-04  1.171E-03 -1.571E-04
   1    4   42     1    42    2.4182E+00  1.0133E-03   2.4172E+00  0.000E+00  0.000E+00  0.000E+00  1.28707E+02  1.157E+00  3.197E+00  6.113E-04  1.172E-03 -1.592E-04
   1    4   43     1    43    2.4172E+00  1.0130E-03   2.4162E+00  0.000E+00  0.000E+00  0.000E+00  1.28407E+02  1.157E+00  3.197E+00  6.113E-04  1.174E-03 -1.614E-04
   1    4   44     1    44    2.4162E+00  1.0127E-03   2.4152E+00  0.000E+00  0.000E+00  0.000E+00  1.28107E+02  1.157E+00  3.197E+00  6.112E-04  1.176E-03 -1.638E-04
   1    4   45     1    45    2.4152E+00  1.0124E-03   2.4142E+00  0.000E+00  0.000E+00  0.000E+00  1.27807E+02  1.157E+00  3.196E+00  6.111E-04  1.179E-03 -1.664E-04
   1    4   46     1    46    2.4142E+00  1.0121E-03   2.4131E+00  0.000E+00  0.000E+00  0.000E+00  1.27506E+02  1.156E+00  3.196E+00  6.110E-04  1.181E-03 -1.693E-04
   1    4   47     1    47    2.4131E+00  1.0118E-03   2.4121E+00  0.000E+00  0.000E+00  0.000E+00  1.27206E+02  1.156E+00  3.196E+00  6.109E-04  1.184E-03 -1.725E-04
   1    4   48     1    48    2.4121E+00  1.0115E-03   2.4111E+00  0.000E+00  0.000E+00  0.000E+00  1.26906E+02  1.156E+00  3.196E+00  6.108E-04  1.188E-03 -1.761E-04
   1    4   49     1    49    2.4111E+00  1.0113E-03   2.4101E+00  0.000E+00  0.000E+00  0.000E+00  1.26606E+02  1.156E+00  3.195E+00  6.108E-04  1.192E-03 -1.804E-04
   1    4   50     1    50    2.4101E+00  1.0110E-03   2.4091E+00  0.000E+00  0.000E+00  0.000E+00  1.26305E+02  1.155E+00  3.195E+00  6.107E-04  1.252E-03 -2.413E-04
   1    4   51     1    51    2.4091E+00  1.0107E-03   2.4081E+00  0.000E+00  0.000E+00  0.000E+00  1.26005E+02  1.155E+00  3.195E+00  6.106E-04  1.221E-03 -2.105E-04
   1    4   52     1    52    2.4081E+00  1.0104E-03   2.4071E+00  0.000E+00  0.000E+00  0.000E+00  1.25705E+02  1.155E+00  3.194E+00  6.105E-04  1.222E-03 -2.116E-04
   1    4   53     1    53    2.4071E+00  1.0101E-03   2.4061E+00  0.000E+00  0.000E+00  0.000E+00  1.25405E+02  1.155E+00  3.194E+00  6.104E-04  1.222E-03 -2.117E-04
   1    4   54     1    54    2.4061E+00  1.0098E-03   2.4051E+00  0.000E+00  0.000E+00  0.000E+00  1.25104E+02  1.154E+00  3.194E+00  6.104E-04  1.246E-03 -2.357E-04
   1    4   55     1    55    2.4051E+00  1.0095E-03   2.4040E+00  0.000E+00  0.000E+00  0.000E+00  1.24804E+02  1.154E+00  3.193E+00  6.103E-04  1.251E-03 -2.415E-04
   1    4   56     1    56    2.4040E+00  1.0092E-03   2.4030E+00  0.000E+00  0.000E+00  0.000E+00  1.24504E+02  1.154E+00  3.193E+00  6.102E-04  1.192E-03 -1.824E-04
   1    4   57     1    57    2.4030E+00  1.0090E-03   2.4020E+00  0.000E+00  0.000E+00  0.000E+00  1.24204E+02  1.154E+00  3.193E+00  6.101E-04  1.188E-03 -1.789E-04
   1    4   58     1    58    2.4020E+00  1.0087E-03   2.4010E+00  0.000E+00  0.000E+00  0.000E+00  1.23903E+02  1.153E+00  3.193E+00  6.100E-04  1.185E-03 -1.760E-04
   1    4   59     1    59    2.4010E+00  1.0084E-03   2.4000E+00  0.000E+00  0.000E+00  0.000E+00  1.23603E+02  1.153E+00  3.192E+00  6.099E-04  1.182E-03 -1.734E-04
   1    4   60     1    60    2.4000E+00  1.0081E-03   2.3990E+00  0.000E+00  0.000E+00  0.000E+00  1.23303E+02  1.153E+00  3.192E+00  6.099E-04  1.179E-03 -1.712E-04
   1    4   61     1    61    2.3990E+00  1.0078E-03   2.3980E+00  0.000E+00  0.000E+00  0.000E+00  1.23003E+02  1.153E+00  3.192E+00  6.098E-04  1.177E-03 -1.692E-04
   1    4   62     1    62    2.3980E+00  1.0075E-03   2.3970E+00  0.000E+00  0.000E+00  0.000E+00  1.22702E+02  1.152E+00  3.191E+00  6.097E-04  1.175E-03 -1.675E-04
   1    4   63     1    63    2.3970E+00  1.0072E-03   2.3960E+00  0.000E+00  0.000E+00  0.000E+00  1.22402E+02  1.152E+00  3.191E+00  6.096E-04  1.173E-03 -1.659E-04
   1    4   64     1    64    2.3960E+00  1.0069E-03   2.3950E+00  0.000E+00  0.000E+00  0.000E+00  1.22102E+02  1.152E+00  3.191E+00  6.095E-04  1.172E-03 -1.646E-04
   1    4   65     1    65    2.3950E+00  1.0067E-03   2.3940E+00  0.000E+00  0.000E+00  0.000E+00  1.21802E+02  1.152E+00  3.190E+00  6.095E-04  1.170E-03 -1.635E-04
   1    4   66     1    66    2.3940E+00  1.0064E-03   2.3930E+00  0.000E+00  0.000E+00  0.000E+00  1.21501E+02  1.151E+00  3.190E+00  6.094E-04  1.167E-03 -1.606E-04
   1    4   67     1    67    2.3930E+00  1.0061E-03   2.3920E+00  0.000E+00  0.000E+00  0.000E+00  1.21201E+02  1.151E+00  3.190E+00  6.093E-04  1.153E-03 -1.470E-04
   1    4   68     1    68    2.3920E+00  1.0058E-03   2.3909E+00  0.000E+00  0.000E+00  0.000E+00  1.20901E+02  1.151E+00  3.190E+00  6.092E-04  1.128E-03 -1.224E-04
   1    4   69     1    69    2.3909E+00  1.0055E-03   2.3899E+00  0.000E+00  0.000E+00  0.000E+00  1.20601E+02  1.151E+00  3.189E+00  6.091E-04  1.094E-03 -8.825E-05
   1    4   70     1    70    2.3899E+00  1.0052E-03   2.3889E+00  0.000E+00  0.000E+00  0.000E+00  1.20300E+02  1.150E+00  3.189E+00  6.090E-04  1.058E-03 -5.292E-05
   1    4   71     1    71    2.3889E+00  1.0049E-03   2.3879E+00  0.000E+00  0.000E+00  0.000E+00  1.20000E+02  1.150E+00  3.189E+00  6.090E-04  1.034E-03 -2.889E-05
   1    4   72     1    72    2.3879E+00  1.0046E-03   2.3869E+00  0.000E+00  0.000E+00  0.000E+00  1.19700E+02  1.150E+00  3.188E+00  6.089E-04  1.019E-03 -1.452E-05
   1    4   73     1    73    2.3869E+00  1.0044E-03   2.3859E+00  0.000E+00  0.000E+00  0.000E+00  1.19400E+02  1.150E+00  3.188E+00  6.088E-04  1.014E-03 -9.966E-06
   1    4   74     1    74    2.3859E+00  1.0041E-03   2.3849E+00  0.000E+00  0.000E+00  0.000E+00  1.19099E+02  1.149E+00  3.188E+00  6.087E-04  1.014E-03 -1.030E-05
   1    4   75     1    75    2.3849E+00  1.0038E-03   2.3839E+00  0.000E+00  0.000E+00  0.000E+00  1.18799E+02  1.149E+00  3.187E+00  6.086E-04  1.014E-03 -1.071E-05
   1    4   76     1    76    2.3839E+00  1.0035E-03   2.3829E+00  0.000E+00  0.000E+00  0.000E+00  1.18499E+02  1.149E+00  3.187E+00  6.086E-04  1.015E-03 -1.119E-05
   1    4   77     1    77    2.3829E+00  1.0032E-03   2.3819E+00  0.000E+00  0.000E+00  0.000E+00  1.18199E+02  1.149E+00  3.187E+00  6.085E-04  1.015E-03 -1.173E-05
   1    4   78     1    78    2.3819E+00  1.0029E-03   2.3809E+00  0.000E+00  0.000E+00  0.000E+00  1.17898E+02  1.148E+00  3.187E+00  6.084E-04  1.015E-03 -1.234E-05
   1    4   79     1    79    2.3809E+00  1.0026E-03   2.3799E+00  0.000E+00  0.000E+00  0.000E+00  1.17598E+02  1.148E+00  3.186E+00  6.083E-04  1.016E-03 -1.303E-05
   1    4   80     1    80    2.3799E+00  1.0024E-03   2.3789E+00  0.000E+00  0.000E+00  0.000E+00  1.17298E+02  1.148E+00  3.186E+00  6.082E-04  1.004E-03 -1.753E-06
   1    4   81     1    81    2.3789E+00  1.0021E-03   2.3779E+00  0.000E+00  0.000E+00  0.000E+00  1.16998E+02  1.148E+00  3.186E+00  6.082E-04  1.005E-03 -2.627E-06
   1    4   82     1    82    2.3779E+00  1.0018E-03   2.3769E+00  0.000E+00  0.000E+00  0.000E+00  1.16697E+02  1.147E+00  3.185E+00  6.081E-04  1.005E-03 -3.543E-06
   1    4   83     1    83    2.3769E+00  1.0015E-03   2.3759E+00  0.000E+00  0.000E+00  0.000E+00  1.16397E+02  1.147E+00  3.185E+00  6.080E-04  1.006E-03 -4.517E-06
   1    4   84     1    84    2.3759E+00  1.0012E-03   2.3749E+00  0.000E+00  0.000E+00  0.000E+00  1.16097E+02  1.147E+00  3.185E+00  6.079E-04  1.007E-03 -5.537E-06
   1    4   85     1    85    2.3749E+00  1.0009E-03   2.3739E+00  0.000E+00  0.000E+00  0.000E+00  1.15797E+02  1.147E+00  3.184E+00  6.078E-04  1.008E-03 -6.603E-06
   1    4   86     1    86    2.3739E+00  1.0006E-03   2.3729E+00  0.000E+00  0.000E+00  0.000E+00  1.15496E+02  1.146E+00  3.184E+00  6.077E-04  1.008E-03 -7.703E-06
   1    4   87     1    87    2.3729E+00  1.0004E-03   2.3719E+00  0.000E+00  0.000E+00  0.000E+00  1.15196E+02  1.146E+00  3.184E+00  6.077E-04  1.009E-03 -8.832E-06
   1    4   88     1    88    2.3719E+00  1.0001E-03   2.3709E+00  0.000E+00  0.000E+00  0.000E+00  1.14896E+02  1.146E+00  3.184E+00  6.076E-04  1.010E-03 -9.982E-06
   1    4   89     1    89    2.3709E+00  9.9978E-04   2.3699E+00  0.000E+00  0.000E+00  0.000E+00  1.14596E+02  1.146E+00  3.183E+00  6.075E-04  1.011E-03 -1.115E-05
   1    4   90     1    90    2.3699E+00  9.9950E-04   2.3689E+00  0.000E+00  0.000E+00  0.000E+00  1.14295E+02  1.145E+00  3.183E+00  6.074E-04  1.012E-03 -1.233E-05
   1    4   91     1    91    2.3689E+00  9.9921E-04   2.3679E+00  0.000E+00  0.000E+00  0.000E+00  1.13995E+02  1.145E+00  3.183E+00  6.073E-04  1.013E-03 -1.352E-05
   1    4   92     1    92    2.3679E+00  9.9893E-04   2.3669E+00  0.000E+00  0.000E+00  0.000E+00  1.13695E+02  1.145E+00  3.182E+00  6.073E-04  1.014E-03 -1.472E-05
   1    4   93     1    93    2.3669E+00  9.9864E-04   2.3659E+00  0.000E+00  0.000E+00  0.000E+00  1.13395E+02  1.145E+00  3.182E+00  6.072E-04  1.015E-03 -1.593E-05
   1    4   94     1    94    2.3659E+00  9.9836E-04   2.3649E+00  0.000E+00  0.000E+00  0.000E+00  1.13094E+02  1.144E+00  3.182E+00  6.071E-04  1.015E-03 -1.714E-05
   1    4   95     1    95    2.3649E+00  9.9807E-04   2.3639E+00  0.000E+00  0.000E+00  0.000E+00  1.12794E+02  1.144E+00  3.181E+00  6.070E-04  1.016E-03 -1.837E-05
   1    4   96     1    96    2.3639E+00  9.9778E-04   2.3629E+00  0.000E+00  0.000E+00  0.000E+00  1.12494E+02  1.144E+00  3.181E+00  6.069E-04  1.017E-03 -1.962E-05
   1    4   97     1    97    2.3629E+00  9.9750E-04   2.3619E+00  0.000E+00  0.000E+00  0.000E+00  1.12194E+02  1.144E+00  3.181E+00  6.068E-04  1.018E-03 -2.088E-05
   1    4   98     1    98    2.3619E+00  9.9721E-04   2.3609E+00  0.000E+00  0.000E+00  0.000E+00  1.11893E+02  1.143E+00  3.181E+00  6.068E-04  1.019E-03 -2.216E-05
   1    4   99     1    99    2.3609E+00  9.9693E-04   2.3599E+00  0.000E+00  0.000E+00  0.000E+00  1.11593E+02  1.143E+00  3.180E+00  6.067E-04  1.020E-03 -2.344E-05
   1    4  100     1   100    2.3599E+00  9.9664E-04   2.3589E+00  0.000E+00  0.000E+00  0.000E+00  1.11293E+02  1.143E+00  3.180E+00  6.066E-04  1.021E-03 -2.421E-05



1
  VOLUMETRIC BUDGET FOR UNSATURATED ZONE BENEATH STREAMS AT END OF TIME STEP    30 STRESS PERIOD  40
  ------------------------------------------------------------------------------------------------

    CUMULATIVE VOLUMES             L**3    RATES FOR THIS TIME STEP         L**3/T
    ------------------                     ------------------------


          STREAM LOSS =     31201314.0000            STREAM LOSS =            0.1011
    CHANGE IN STORAGE =      1259164.8750      CHANGE IN STORAGE =       -5.4970E-03
       RECHARGE TO GW =     29949174.0000         RECHARGE TO GW =            0.1066

             TOTAL IN =     31201314.0000               TOTAL IN =            0.1066

            TOTAL OUT =     31208338.0000              TOTAL OUT =            0.1066

             IN - OUT =        -7024.0000               IN - OUT =        3.0547E-07

  PERCENT DISCREPANCY =           -0.01      PERCENT DISCREPANCY =             0.00



1
              HEAD IN LAYER   1 AT END OF TIME STEP  30 IN STRESS PERIOD   40
  ---------------------------------------------------------------------------

          1      2      3      4      5      6      7      8      9     10
         11     12     13     14     15     16     17     18     19     20
         21     22     23     24     25     26     27     28     29     30
         31     32     33     34     35     36     37     38     39     40
         41     42     43     44     45     46     47     48     49     50
         51     52     53     54     55     56     57     58     59     60
         61     62     63     64     65     66     67     68     69     70
         71     72     73     74     75     76     77     78     79     80
         81     82     83     84     85     86     87     88     89     90
         91     92     93     94     95     96     97     98     99    100
 .........................................................................
   1    86.0   85.9   85.8   85.7   85.6   85.4   85.1   84.9   84.5   84.2
        83.8   83.3   82.9   82.3   81.8   81.2   80.5   79.8   79.1   78.3
        77.4   76.5   75.6   74.6   73.6   72.5   71.3   70.1   68.8   67.5
        66.0   64.6   63.0   61.4   59.6   57.8   55.9   53.9   51.7   49.4
        47.0   44.4   41.6   38.6   35.3   31.6   27.4   22.4   16.4    9.4
         8.4    8.7    9.0    9.7   11.6   15.5   19.6   23.4   26.8   29.9
        32.6   35.2   37.5   39.7   41.7   43.6   45.4   47.0   48.6   50.1
        51.6   52.9   54.2   55.5   56.7   57.8   58.9   59.9   60.9   61.8
        62.7   63.6   64.4   65.2   66.0   66.7   67.5   68.2   68.8   69.5
        70.1   70.7   71.3   71.9   72.4   73.0   73.5   74.0   74.5   75.0
   2    86.0   85.9   85.8   85.7   85.6   85.4   85.1   84.9   84.5   84.2
        83.8   83.3   82.9   82.3   81.8   81.2   80.5   79.8   79.1   78.3
        77.4   76.5   75.6   74.6   73.6   72.5   71.3   70.1   68.8   67.5
        66.0   64.6   63.0   61.4   59.6   57.8   55.9   53.9   51.7   49.4
        47.0   44.4   41.6   38.6   35.3   31.6   27.4   22.4   16.1    7.2
         8.1    8.7    8.9    9.3   10.9   15.2   19.5   23.4   26.8   29.9
        32.6   35.2   37.5   39.7   41.7   43.6   45.4   47.0   48.6   50.1
        51.6   52.9   54.2   55.5   56.7   57.8   58.9   59.9   60.9   61.8
        62.7   63.6   64.4   65.2   66.0   66.7   67.5   68.2   68.8   69.5
        70.1   70.7   71.3   71.9   72.4   73.0   73.5   74.0   74.5   75.0
   3    86.0   85.9   85.8   85.7   85.6   85.4   85.1   84.9   84.5   84.2
        83.8   83.3   82.9   82.3   81.8   81.2   80.5   79.8   79.1   78.3
        77.4   76.5   75.6   74.6   73.6   72.5   71.3   70.1   68.8   67.5
        66.0   64.6   63.0   61.4   59.6   57.8   55.9   53.9   51.7   49.4
        47.0   44.4   41.6   38.6   35.3   31.6   27.5   22.5   15.8    0.0
         7.9    8.8    8.8    8.7    9.3   14.7   19.4   23.4   26.8   29.9
        32.6   35.2   37.5   39.7   41.7   43.6   45.4   47.0   48.6   50.1
        51.6   52.9   54.2   55.5   56.7   57.8   58.9   59.9   60.9   61.8
        62.7   63.6   64.4   65.2   66.0   66.7   67.5   68.2   68.8   69.5
        70.1   70.7   71.3   71.9   72.4   73.0   73.5   74.0   74.5   75.0
   4    86.0   85.9   85.8   85.7   85.6   85.4   85.1   84.9   84.5   84.2
        83.8   83.3   82.9   82.3   81.8   81.2   80.5   79.8   79.1   78.3
        77.4   76.5   75.6   74.6   73.6   72.5   71.3   70.1   68.8   67.5
        66.1   64.6   63.0   61.4   59.6   57.8   55.9   53.9   51.7   49.5
        47.0   44.4   41.6   38.6   35.3   31.7   27.5   22.7   16.5    7.4
         8.7    8.9    8.7    8.0    6.4   14.1   19.3   23.3   26.8   29.9
        32.6   35.2   37.5   39.7   41.7   43.6   45.4   47.0   48.6   50.2
        51.6   52.9   54.2   55.5   56.7   57.8   58.9   59.9   60.9   61.8
        62.7   63.6   64.4   65.2   66.0   66.8   67.5   68.2   68.8   69.5
        70.1   70.7   71.3   71.9   72.4   73.0   73.5   74.0   74.5   75.0
   5    86.0   85.9   85.8   85.7   85.6   85.4   85.1   84.9   84.5   84.2
        83.8   83.3   82.9   82.3   81.8   81.2   80.5   79.8   79.1   78.3
        77.4   76.5   75.6   74.6   73.6   72.5   71.3   70.1   68.8   67.5
        66.0   64.6   63.0   61.4   59.6   57.8   55.9   53.9   51.7   49.4
        47.0   44.4   41.6   38.6   35.3   31.7   27.6   22.8   17.2   10.8
         9.6    9.1    8.6    7.3    0.0   13.4   19.1   23.3   26.8   29.9
        32.6   35.2   37.5   39.7   41.7   43.6   45.4   47.0   48.6   50.1
        51.6   52.9   54.2   55.5   56.7   57.8   58.9   59.9   60.9   61.8
        62.7   63.6   64.4   65.2   66.0   66.7   67.5   68.2   68.8   69.5
        70.1   70.7   71.3   71.9   72.4   73.0   73.5   74.0   74.5   75.0
   6    86.0   85.9   85.8   85.7   85.6   85.4   85.1   84.9   84.5   84.2
        83.8   83.3   82.9   82.3   81.8   81.2   80.5   79.8   79.1   78.3
        77.4   76.5   75.6   74.6   73.6   72.5   71.3   70.1   68.8   67.5
        66.0   64.6   63.0   61.4   59.6   57.8   55.9   53.9   51.7   49.4
        47.0   44.4   41.6   38.6   35.3   31.7   27.6   23.0   17.8   12.6
        10.4    9.3    8.6    7.5    6.2   13.7   19.1   23.2   26.8   29.8
        32.6   35.2   37.5   39.7   41.7   43.6   45.4   47.0   48.6   50.1
        51.6   52.9   54.2   55.5   56.7   57.8   58.9   59.9   60.9   61.8
        62.7   63.6   64.4   65.2   66.0   66.7   67.5   68.2   68.8   69.5
        70.1   70.7   71.3   71.9   72.4   73.0   73.5   74.0   74.5   75.0
   7    86.0   85.9   85.8   85.7   85.6   85.4   85.1   84.9   84.5   84.2
        83.8   83.3   82.9   82.3   81.8   81.2   80.5   79.8   79.1   78.3
        77.4   76.5   75.6   74.6   73.6   72.5   71.3   70.1   68.8   67.5
        66.0   64.6   63.0   61.4   59.6   57.8   55.9   53.9   51.7   49.4
        47.0   44.4   41.6   38.6   35.3   31.7   27.6   23.1   18.2   13.4
        10.8    9.5    8.6    7.8    8.1   13.9   19.1   23.2   26.8   29.8
        32.6   35.2   37.5   39.7   41.7   43.6   45.4   47.0   48.6   50.1
        51.6   52.9   54.2   55.5   56.7   57.8   58.9   59.9   60.9   61.8
        62.7   63.6   64.4   65.2   66.0   66.7   67.5   68.2   68.8   69.5
        70.1   70.7   71.3   71.9   72.4   73.0   73.5   74.0   74.5   75.0

 HEAD WILL BE SAVED ON UNIT   51 AT END OF TIME STEP   30, STRESS PERIOD   40
1
  VOLUMETRIC BUDGET FOR ENTIRE MODEL AT END OF TIME STEP   30, STRESS PERIOD  40
  ------------------------------------------------------------------------------

     CUMULATIVE VOLUMES      L**3       RATES FOR THIS TIME STEP      L**3/T
     ------------------                 ------------------------

           IN:                                      IN:
           ---                                      ---
             STORAGE     =   111881376.0000               STORAGE     =           0.3662
       CONSTANT HEAD     =           0.0000         CONSTANT HEAD     =           0.0000
               WELLS     =           0.0000                 WELLS     =           0.0000
     HEAD DEP BOUNDS     =     1944436.7500       HEAD DEP BOUNDS     =       8.8055E-02
      STREAM LEAKAGE     =    29948798.0000        STREAM LEAKAGE     =           0.1066

                TOTAL IN =   143774608.0000                  TOTAL IN =           0.5608

          OUT:                                     OUT:
          ----                                     ----
             STORAGE     =     3028706.7500               STORAGE     =           0.0000
       CONSTANT HEAD     =           0.0000         CONSTANT HEAD     =           0.0000
               WELLS     =   124386568.0000                 WELLS     =           0.5608
     HEAD DEP BOUNDS     =    16359348.0000       HEAD DEP BOUNDS     =           0.0000
      STREAM LEAKAGE     =           0.0000        STREAM LEAKAGE     =           0.0000

               TOTAL OUT =   143774624.0000                 TOTAL OUT =           0.5608

                IN - OUT =         -16.0000                  IN - OUT =           0.0000

     PERCENT DISCREPANCY =          -0.00         PERCENT DISCREPANCY =           0.00






         TIME SUMMARY AT END OF TIME STEP   30 IN STRESS PERIOD   40
                    SECONDS     MINUTES      HOURS       DAYS        YEARS
                    -----------------------------------------------------------
   TIME STEP LENGTH 2.49961E+05  4166.0      69.434      2.8931     7.92080E-03
 STRESS PERIOD TIME 2.59200E+06  43200.      720.00      30.000     8.21355E-02
         TOTAL TIME 1.03680E+08 1.72800E+06  28800.      1200.0      3.2854    
1
1
                            STRESS PERIOD NO.   41, LENGTH =   2592000.    
                            -----------------------------------------------

                              NUMBER OF TIME STEPS =    30

                               MULTIPLIER FOR DELT =     1.100

                            INITIAL TIME STEP SIZE =   15757.40    

 REUSING NON-PARAMETER WELLS FROM LAST STRESS PERIOD

      1 WELL 

 REUSING NON-PARAMETER GHB CELLS FROM LAST STRESS PERIOD

      7 GHB CELLS



 CLASSIFICATION & COUNT OF STREAM SEGMENTS BASED ON SOURCE OF INFLOW:

                HEADWATER     DIVERSION     RECEIVES TRIBUTARY FLOW
                ---------     ---------     -----------------------
                     1              0               0



                    INPUT DATA FOR EACH STREAM SEGMENT
 ---------------------------------------------------------------------------------------------

 SEGMENT    SEG.     INFLOW   OVERLAND   STREAM    STREAM   ICALC  OUTFLOW  DIVERSION PRIORITY
    NO.    LENGTH     RATE     RUNOFF      ET       PPT.    METH.  TO SEG.  FROM SEG.    NO.

      1  2.000E+04 1.970E+01 0.000E+00 0.000E+00 0.000E+00    2        0        0        0


         STREAMBED PROPERTIES AND STREAM DIMENSIONS

 SEGMENT     BED HYD. COND.      BED THICKNESS     ELEV.-TOP OF BED     WIDTH OF STREAM     DEPTH OF STREAM    STREAM ROUGHNESS
    No.     UPPER     LOWER     UPPER     LOWER     UPPER     LOWER     UPPER     LOWER     UPPER     LOWER   CHANNEL      BANK

     1  3.500E-07 3.500E-07                                                                                 3.000E-02 4.000E-02

  EIGHT POINT CROSS-SECTION DATA FOR SEGMENTS WITH ICALC = 2
    X VALUES X VALUES START FROM LEFT SIDE LOOKING DOWNSTREAM

     SEGMENT NO.        X1        X2        X3        X4        X5        X6        X7        X8
            1      0.000E+00 2.000E+00 4.000E+00 6.000E+00 8.000E+00 1.000E+01 1.200E+01 1.400E+01

    Z VALUES ARE RELATIVE TO STREAMBED ELEVATION

     SEGMENT NO.          Z1        Z2        Z3        Z4        Z5        Z6        Z7        Z8
            1      6.000E+00 4.500E+00 3.500E+00 0.000E+00 3.000E-01 3.500E+00 4.500E+00 6.000E+00



 
 SOLVING FOR HEAD 
                                                   Max.-Head-Change                         Max.-Flux-Residual
  Residual-Control   Outer-Iter.   Inner-Iter.     Column Row Layer    Maximum-Head-Change  Column Row Layer    Maximum-Flux-Residual          L2-NORM 
          0                 1           2             1    1     1      -0.5111370610E-02      50    3    1         0.1052167496E+00      0.1325360666E+00
          0                 2           2             1    1     1       0.4990065369E-03      50    3    1        -0.1854333619E-01      0.2406473188E-01
          0                 3           1             1    1     1      -0.4401049374E-04      50    3    1         0.1550665587E-02      0.1978064974E-02
          0                 4           1             1    1     1       0.3465563013E-05      50    3    1        -0.1251257479E-03      0.1598284195E-03
          0                 5           1             1    1     1      -0.2401205780E-06      50    3    1         0.8790410975E-05      0.1122809901E-04

    ------------------------------------------------
       NWT REQUIRED            5 OUTER ITERATIONS 
       AND A TOTAL OF          7 INNER ITERATIONS.
    ------------------------------------------------

 NO OUTPUT CONTROL FOR STRESS PERIOD   41   TIME STEP    1
 
 WELLS WITH REDUCED PUMPING FOR STRESS PERIOD    41 TIME STEP     1
   LAY   ROW   COL         APPL.Q          ACT.Q        GW-HEAD       CELL-BOT
     1     3    50  -0.920152E+00  -0.320451E+00   0.445087E-03   0.000000E+00
     1     5    55  -0.920152E+00  -0.240340E+00   0.371611E-03   0.000000E+00
 
 
 SOLVING FOR HEAD 
                                                   Max.-Head-Change                         Max.-Flux-Residual
  Residual-Control   Outer-Iter.   Inner-Iter.     Column Row Layer    Maximum-Head-Change  Column Row Layer    Maximum-Flux-Residual          L2-NORM 
          0                 1           2             1    1     1      -0.5620885504E-02       1    2    1        -0.1063090050E-02      0.1637893547E-01
          0                 2           2             1    1     1       0.5477513697E-03       1    2    1         0.1063087253E-03      0.1588604530E-02
          0                 3           1             1    1     1      -0.4823064088E-04       1    2    1        -0.9567813445E-05      0.1444287654E-03
          0                 4           1             1    1     1       0.3792551696E-05       1    7    1         0.7663779322E-06      0.1181063120E-04
          0                 5           1             1    1     1      -0.2624784230E-06       1    7    1        -0.5387562174E-07      0.8458445342E-06

    ------------------------------------------------
       NWT REQUIRED            5 OUTER ITERATIONS 
       AND A TOTAL OF          7 INNER ITERATIONS.
    ------------------------------------------------

 NO OUTPUT CONTROL FOR STRESS PERIOD   41   TIME STEP    2
 
 WELLS WITH REDUCED PUMPING FOR STRESS PERIOD    41 TIME STEP     2
   LAY   ROW   COL         APPL.Q          ACT.Q        GW-HEAD       CELL-BOT
     1     3    50  -0.920152E+00  -0.320431E+00   0.445070E-03   0.000000E+00
     1     5    55  -0.920152E+00  -0.240328E+00   0.371600E-03   0.000000E+00
 
 
 SOLVING FOR HEAD 
                                                   Max.-Head-Change                         Max.-Flux-Residual
  Residual-Control   Outer-Iter.   Inner-Iter.     Column Row Layer    Maximum-Head-Change  Column Row Layer    Maximum-Flux-Residual          L2-NORM 
          0                 1           2             1    1     1      -0.6181031407E-02       1    1    1        -0.1062953843E-02      0.1638016224E-01
          0                 2           2             1    1     1       0.6011717260E-03       1    1    1         0.1062952351E-03      0.1589019279E-02
          0                 3           1             1    1     1      -0.5284019055E-04       1    1    1        -0.9566588311E-05      0.1445636821E-03
          0                 4           1             1    1     1       0.4148520555E-05       1    7    1         0.7662837063E-06      0.1184249307E-04
          0                 5           1             1    1     1      -0.2867407329E-06       1    1    1        -0.5386899993E-07      0.8500248714E-06

    ------------------------------------------------
       NWT REQUIRED            5 OUTER ITERATIONS 
       AND A TOTAL OF          7 INNER ITERATIONS.
    ------------------------------------------------

 NO OUTPUT CONTROL FOR STRESS PERIOD   41   TIME STEP    3
 
 WELLS WITH REDUCED PUMPING FOR STRESS PERIOD    41 TIME STEP     3
   LAY   ROW   COL         APPL.Q          ACT.Q        GW-HEAD       CELL-BOT
     1     3    50  -0.919881E+00  -0.320401E+00   0.445125E-03   0.000000E+00
     1     5    55  -0.919881E+00  -0.240309E+00   0.371647E-03   0.000000E+00
 
 
 SOLVING FOR HEAD 
                                                   Max.-Head-Change                         Max.-Flux-Residual
  Residual-Control   Outer-Iter.   Inner-Iter.     Column Row Layer    Maximum-Head-Change  Column Row Layer    Maximum-Flux-Residual          L2-NORM 
          0                 1           2             1    1     1      -0.6796826252E-02       1    1    1        -0.1062806552E-02      0.1638065631E-01
          0                 2           2             1    1     1       0.6597125950E-03       1    1    1         0.1062804731E-03      0.1589089918E-02
          0                 3           1             1    1     1      -0.5787413954E-04       1    1    1        -0.9565263191E-05      0.1446613245E-03
          0                 4           1             1    1     1       0.4535873812E-05       1    1    1         0.7661775197E-06      0.1187199839E-04
          0                 5           1             1    1     1      -0.3130497720E-06       1    7    1        -0.5386154944E-07      0.8541729620E-06

    ------------------------------------------------
       NWT REQUIRED            5 OUTER ITERATIONS 
       AND A TOTAL OF          7 INNER ITERATIONS.
    ------------------------------------------------

 NO OUTPUT CONTROL FOR STRESS PERIOD   41   TIME STEP    4
 
 WELLS WITH REDUCED PUMPING FOR STRESS PERIOD    41 TIME STEP     4
   LAY   ROW   COL         APPL.Q          ACT.Q        GW-HEAD       CELL-BOT
     1     3    50  -0.920127E+00  -0.320368E+00   0.445024E-03   0.000000E+00
     1     5    55  -0.920127E+00  -0.240289E+00   0.371570E-03   0.000000E+00
 
 
 SOLVING FOR HEAD 
                                                   Max.-Head-Change                         Max.-Flux-Residual
  Residual-Control   Outer-Iter.   Inner-Iter.     Column Row Layer    Maximum-Head-Change  Column Row Layer    Maximum-Flux-Residual          L2-NORM 
          0                 1           2             1    1     1      -0.7473782464E-02       1    1    1        -0.1062642266E-02      0.1638000354E-01
          0                 2           2             1    1     1       0.7238626536E-03       1    1    1         0.1062640057E-03      0.1589094229E-02
          0                 3           1             1    1     1      -0.6337085375E-04       1    1    1        -0.9563785190E-05      0.1447572479E-03
          0                 4           1             1    1     1       0.4957239063E-05       1    1    1         0.7660590793E-06      0.1190191562E-04
          0                 5           1             1    1     1      -0.3415600732E-06       1    1    1        -0.5385320989E-07      0.8584606406E-06

    ------------------------------------------------
       NWT REQUIRED            5 OUTER ITERATIONS 
       AND A TOTAL OF          7 INNER ITERATIONS.
    ------------------------------------------------

 NO OUTPUT CONTROL FOR STRESS PERIOD   41   TIME STEP    5
 
 WELLS WITH REDUCED PUMPING FOR STRESS PERIOD    41 TIME STEP     5
   LAY   ROW   COL         APPL.Q          ACT.Q        GW-HEAD       CELL-BOT
     1     3    50  -0.920063E+00  -0.320332E+00   0.445012E-03   0.000000E+00
     1     5    55  -0.920063E+00  -0.240266E+00   0.371564E-03   0.000000E+00
 
 
 SOLVING FOR HEAD 
                                                   Max.-Head-Change                         Max.-Flux-Residual
  Residual-Control   Outer-Iter.   Inner-Iter.     Column Row Layer    Maximum-Head-Change  Column Row Layer    Maximum-Flux-Residual          L2-NORM 
          0                 1           2             1    1     1      -0.8217956636E-02       1    1    1        -0.1062460242E-02      0.1637920176E-01
          0                 2           2             1    1     1       0.7941589708E-03       1    1    1         0.1062457577E-03      0.1589052791E-02
          0                 3           1             1    1     1      -0.6937246092E-04       1    1    1        -0.9562147641E-05      0.1448451883E-03
          0                 4           1             1    1     1       0.5415490865E-05       1    1    1         0.7659278456E-06      0.1193139208E-04
          0                 5           1             1    1     1      -0.3724394027E-06       1    7    1        -0.5384399016E-07      0.8628179981E-06

    ------------------------------------------------
       NWT REQUIRED            5 OUTER ITERATIONS 
       AND A TOTAL OF          7 INNER ITERATIONS.
    ------------------------------------------------

 NO OUTPUT CONTROL FOR STRESS PERIOD   41   TIME STEP    6
 
 WELLS WITH REDUCED PUMPING FOR STRESS PERIOD    41 TIME STEP     6
   LAY   ROW   COL         APPL.Q          ACT.Q        GW-HEAD       CELL-BOT
     1     3    50  -0.919947E+00  -0.320292E+00   0.445012E-03   0.000000E+00
     1     5    55  -0.919947E+00  -0.240240E+00   0.371569E-03   0.000000E+00
 
 
 SOLVING FOR HEAD 
                                                   Max.-Head-Change                         Max.-Flux-Residual
  Residual-Control   Outer-Iter.   Inner-Iter.     Column Row Layer    Maximum-Head-Change  Column Row Layer    Maximum-Flux-Residual          L2-NORM 
          0                 1           2             1    1     1      -0.9036000051E-02       1    1    1        -0.1062259396E-02      0.1637861276E-01
          0                 2           2             1    1     1       0.8711918107E-03       1    1    1         0.1062256198E-03      0.1588942473E-02
          0                 3           1             1    1     1      -0.7592525867E-04       1    1    1        -0.9560340784E-05      0.1449265880E-03
          0                 4           1             1    1     1       0.5913779440E-05       1    1    1         0.7657830423E-06      0.1196083257E-04
          0                 5           1             1    1     1      -0.4058702369E-06       1    4    1         0.5503695633E-07      0.8672760965E-06

    ------------------------------------------------
       NWT REQUIRED            5 OUTER ITERATIONS 
       AND A TOTAL OF          7 INNER ITERATIONS.
    ------------------------------------------------

 NO OUTPUT CONTROL FOR STRESS PERIOD   41   TIME STEP    7
 
 WELLS WITH REDUCED PUMPING FOR STRESS PERIOD    41 TIME STEP     7
   LAY   ROW   COL         APPL.Q          ACT.Q        GW-HEAD       CELL-BOT
     1     3    50  -0.919894E+00  -0.320247E+00   0.444990E-03   0.000000E+00
     1     5    55  -0.919894E+00  -0.240212E+00   0.371556E-03   0.000000E+00
 
 
 SOLVING FOR HEAD 
                                                   Max.-Head-Change                         Max.-Flux-Residual
  Residual-Control   Outer-Iter.   Inner-Iter.     Column Row Layer    Maximum-Head-Change  Column Row Layer    Maximum-Flux-Residual          L2-NORM 
          0                 1           2             1    1     1      -0.9935219354E-02       1    1    1        -0.1062038321E-02      0.1637731930E-01
          0                 2           2             1    1     1       0.9556104037E-03       1    1    1         0.1062034504E-03      0.1588864102E-02
          0                 3           1             1    1     1      -0.8308020681E-04       1    1    1        -0.9558351994E-05      0.1450125618E-03
          0                 4           1             1    1     1       0.6455565337E-05       1    1    1         0.7656236498E-06      0.1199079383E-04
          0                 5           1             1    1     1      -0.4420521590E-06       1    4    1         0.5685381410E-07      0.8718463849E-06

    ------------------------------------------------
       NWT REQUIRED            5 OUTER ITERATIONS 
       AND A TOTAL OF          7 INNER ITERATIONS.
    ------------------------------------------------

 NO OUTPUT CONTROL FOR STRESS PERIOD   41   TIME STEP    8
 
 WELLS WITH REDUCED PUMPING FOR STRESS PERIOD    41 TIME STEP     8
   LAY   ROW   COL         APPL.Q          ACT.Q        GW-HEAD       CELL-BOT
     1     3    50  -0.919918E+00  -0.320198E+00   0.444941E-03   0.000000E+00
     1     5    55  -0.919918E+00  -0.240181E+00   0.371522E-03   0.000000E+00
 
 
 SOLVING FOR HEAD 
                                                   Max.-Head-Change                         Max.-Flux-Residual
  Residual-Control   Outer-Iter.   Inner-Iter.     Column Row Layer    Maximum-Head-Change  Column Row Layer    Maximum-Flux-Residual          L2-NORM 
          0                 1           2             1    1     1      -0.1092363712E-01       1    1    1        -0.1061795309E-02      0.1637582245E-01
          0                 2           2             1    1     1       0.1048128704E-02       1    1    1         0.1061790774E-03      0.1588699740E-02
          0                 3           1             1    1     1      -0.9089341811E-04       1    1    1        -0.9556165875E-05      0.1451008027E-03
          0                 4           1             1    1     1       0.7044652648E-05       1    7    1         0.7654484389E-06      0.1202253450E-04
          0                 5           1             1    1     1      -0.4812034865E-06       1    4    1         0.5862273156E-07      0.8766671697E-06

    ------------------------------------------------
       NWT REQUIRED            5 OUTER ITERATIONS 
       AND A TOTAL OF          7 INNER ITERATIONS.
    ------------------------------------------------

 NO OUTPUT CONTROL FOR STRESS PERIOD   41   TIME STEP    9
 
 WELLS WITH REDUCED PUMPING FOR STRESS PERIOD    41 TIME STEP     9
   LAY   ROW   COL         APPL.Q          ACT.Q        GW-HEAD       CELL-BOT
     1     3    50  -0.919962E+00  -0.320144E+00   0.444883E-03   0.000000E+00
     1     5    55  -0.919962E+00  -0.240147E+00   0.371481E-03   0.000000E+00
 
 
 SOLVING FOR HEAD 
                                                   Max.-Head-Change                         Max.-Flux-Residual
  Residual-Control   Outer-Iter.   Inner-Iter.     Column Row Layer    Maximum-Head-Change  Column Row Layer    Maximum-Flux-Residual          L2-NORM 
          0                 1           2             1    1     1      -0.1201006471E-01       1    1    1        -0.1061528367E-02      0.1637377734E-01
          0                 2           2             1    1     1       0.1149532292E-02       1    1    1         0.1061523005E-03      0.1588503536E-02
          0                 3           1             1    1     1      -0.9942674469E-04       1    1    1        -0.9553764519E-05      0.1451753685E-03
          0                 4           1             1    1     1       0.7685227433E-05       1    1    1         0.7652559866E-06      0.1205199727E-04
          0                 5           1             1    1     1      -0.5235634569E-06       1    4    1         0.6033862121E-07      0.8813484748E-06

    ------------------------------------------------
       NWT REQUIRED            5 OUTER ITERATIONS 
       AND A TOTAL OF          7 INNER ITERATIONS.
    ------------------------------------------------

 NO OUTPUT CONTROL FOR STRESS PERIOD   41   TIME STEP   10
 
 WELLS WITH REDUCED PUMPING FOR STRESS PERIOD    41 TIME STEP    10
   LAY   ROW   COL         APPL.Q          ACT.Q        GW-HEAD       CELL-BOT
     1     3    50  -0.919922E+00  -0.320084E+00   0.444844E-03   0.000000E+00
     1     5    55  -0.919922E+00  -0.240109E+00   0.371456E-03   0.000000E+00
 
 
 SOLVING FOR HEAD 
                                                   Max.-Head-Change                         Max.-Flux-Residual
  Residual-Control   Outer-Iter.   Inner-Iter.     Column Row Layer    Maximum-Head-Change  Column Row Layer    Maximum-Flux-Residual          L2-NORM 
          0                 1           2             1    1     1      -0.1320417271E-01       1    1    1        -0.1061235229E-02      0.1637150662E-01
          0                 2           2             1    1     1       0.1260685023E-02       1    1    1         0.1061228916E-03      0.1588257990E-02
          0                 3           2             1    1     1      -0.1087494390E-03       1    1    1        -0.9551127517E-05      0.1452363755E-03
          0                 4           1             1    1     1       0.8383063233E-05       1    7    1         0.7650446192E-06      0.1208176053E-04
          0                 5           1             1    1     1      -0.5694704361E-06       1    4    1         0.6200455971E-07      0.8860597810E-06

    ------------------------------------------------
       NWT REQUIRED            5 OUTER ITERATIONS 
       AND A TOTAL OF          8 INNER ITERATIONS.
    ------------------------------------------------

 NO OUTPUT CONTROL FOR STRESS PERIOD   41   TIME STEP   11
 
 WELLS WITH REDUCED PUMPING FOR STRESS PERIOD    41 TIME STEP    11
   LAY   ROW   COL         APPL.Q          ACT.Q        GW-HEAD       CELL-BOT
     1     3    50  -0.920030E+00  -0.320018E+00   0.444756E-03   0.000000E+00
     1     5    55  -0.920030E+00  -0.240068E+00   0.371393E-03   0.000000E+00
 
 
 SOLVING FOR HEAD 
                                                   Max.-Head-Change                         Max.-Flux-Residual
  Residual-Control   Outer-Iter.   Inner-Iter.     Column Row Layer    Maximum-Head-Change  Column Row Layer    Maximum-Flux-Residual          L2-NORM 
          0                 1           2             1    1     1      -0.1451657699E-01       1    1    1        -0.1060913357E-02      0.1636916743E-01
          0                 2           2             1    1     1       0.1382537106E-02       1    1    1         0.1060905956E-03      0.1587986239E-02
          0                 3           2             1    1     1      -0.1189351705E-03       1    1    1        -0.9548232070E-05      0.1452821105E-03
          0                 4           1             1    1     1       0.9141659186E-05       1    1    1         0.7648125440E-06      0.1210765426E-04
          0                 5           1             1    1     1      -0.6191076993E-06       1    4    1         0.6360440707E-07      0.8904577826E-06

    ------------------------------------------------
       NWT REQUIRED            5 OUTER ITERATIONS 
       AND A TOTAL OF          8 INNER ITERATIONS.
    ------------------------------------------------

 NO OUTPUT CONTROL FOR STRESS PERIOD   41   TIME STEP   12
 
 WELLS WITH REDUCED PUMPING FOR STRESS PERIOD    41 TIME STEP    12
   LAY   ROW   COL         APPL.Q          ACT.Q        GW-HEAD       CELL-BOT
     1     3    50  -0.920047E+00  -0.319944E+00   0.444689E-03   0.000000E+00
     1     5    55  -0.920047E+00  -0.240022E+00   0.371348E-03   0.000000E+00
 
 
 SOLVING FOR HEAD 
                                                   Max.-Head-Change                         Max.-Flux-Residual
  Residual-Control   Outer-Iter.   Inner-Iter.     Column Row Layer    Maximum-Head-Change  Column Row Layer    Maximum-Flux-Residual          L2-NORM 
          0                 1           2             1    1     1      -0.1595892732E-01       1    1    1        -0.1060559933E-02      0.1636631167E-01
          0                 2           2             1    1     1       0.1516133380E-02       1    1    1         0.1060551290E-03      0.1587703252E-02
          0                 3           2             1    1     1      -0.1300675417E-03       1    1    1        -0.9545052789E-05      0.1453360735E-03
          0                 4           1             1    1     1       0.9967423449E-05       1    7    1         0.7645577100E-06      0.1213477009E-04
          0                 5           1             1    1     1      -0.6728414202E-06       1    4    1         0.6513968742E-07      0.8949523583E-06

    ------------------------------------------------
       NWT REQUIRED            5 OUTER ITERATIONS 
       AND A TOTAL OF          8 INNER ITERATIONS.
    ------------------------------------------------

 NO OUTPUT CONTROL FOR STRESS PERIOD   41   TIME STEP   13
 
 WELLS WITH REDUCED PUMPING FOR STRESS PERIOD    41 TIME STEP    13
   LAY   ROW   COL         APPL.Q          ACT.Q        GW-HEAD       CELL-BOT
     1     3    50  -0.920047E+00  -0.319862E+00   0.444619E-03   0.000000E+00
     1     5    55  -0.920047E+00  -0.239971E+00   0.371302E-03   0.000000E+00
 
 
 SOLVING FOR HEAD 
                                                   Max.-Head-Change                         Max.-Flux-Residual
  Residual-Control   Outer-Iter.   Inner-Iter.     Column Row Layer    Maximum-Head-Change  Column Row Layer    Maximum-Flux-Residual          L2-NORM 
          0                 1           2             1    1     1      -0.1754400408E-01       1    1    1        -0.1060171842E-02      0.1636241196E-01
          0                 2           2             1    1     1       0.1662622287E-02       1    1    1         0.1060161787E-03      0.1587346791E-02
          0                 3           2             1    1     1      -0.1422379780E-03       1    1    1        -0.9541561649E-05      0.1453816925E-03
          0                 4           1             1    1     1       0.1086667373E-04       1    1    1         0.7642778730E-06      0.1216077730E-04
          0                 5           1             1    1     1      -0.7310211178E-06       1    4    1         0.6660710028E-07      0.8993102783E-06

    ------------------------------------------------
       NWT REQUIRED            5 OUTER ITERATIONS 
       AND A TOTAL OF          8 INNER ITERATIONS.
    ------------------------------------------------

 NO OUTPUT CONTROL FOR STRESS PERIOD   41   TIME STEP   14
 
 WELLS WITH REDUCED PUMPING FOR STRESS PERIOD    41 TIME STEP    14
   LAY   ROW   COL         APPL.Q          ACT.Q        GW-HEAD       CELL-BOT
     1     3    50  -0.920020E+00  -0.319763E+00   0.444543E-03   0.000000E+00
     1     5    55  -0.920020E+00  -0.239914E+00   0.371257E-03   0.000000E+00
 
 
 SOLVING FOR HEAD 
                                                   Max.-Head-Change                         Max.-Flux-Residual
  Residual-Control   Outer-Iter.   Inner-Iter.     Column Row Layer    Maximum-Head-Change  Column Row Layer    Maximum-Flux-Residual          L2-NORM 
          0                 1           2             1    1     1      -0.1928582369E-01       1    1    1        -0.1059745650E-02      0.1635751809E-01
          0                 2           2             1    1     1       0.1823265606E-02       1    1    1         0.1059733994E-03      0.1586868357E-02
          0                 3           2             1    1     1      -0.1555471889E-03       1    1    1        -0.9537727754E-05      0.1454133094E-03
          0                 4           1             1    1     1       0.1184638504E-04       1    1    1         0.7639705526E-06      0.1218513459E-04
          0                 5           1             1    1     1      -0.7940245262E-06       1    4    1         0.6800372887E-07      0.9034617644E-06

    ------------------------------------------------
       NWT REQUIRED            5 OUTER ITERATIONS 
       AND A TOTAL OF          8 INNER ITERATIONS.
    ------------------------------------------------

 NO OUTPUT CONTROL FOR STRESS PERIOD   41   TIME STEP   15
 
 WELLS WITH REDUCED PUMPING FOR STRESS PERIOD    41 TIME STEP    15
   LAY   ROW   COL         APPL.Q          ACT.Q        GW-HEAD       CELL-BOT
     1     3    50  -0.920019E+00  -0.319660E+00   0.444455E-03   0.000000E+00
     1     5    55  -0.920019E+00  -0.239852E+00   0.371201E-03   0.000000E+00
 
 
 SOLVING FOR HEAD 
                                                   Max.-Head-Change                         Max.-Flux-Residual
  Residual-Control   Outer-Iter.   Inner-Iter.     Column Row Layer    Maximum-Head-Change  Column Row Layer    Maximum-Flux-Residual          L2-NORM 
          0                 1           2             1    1     1      -0.2119975359E-01       1    1    1        -0.1059277577E-02      0.1635167742E-01
          0                 2           2             1    1     1       0.1999449005E-02       1    1    1         0.1059264111E-03      0.1586308300E-02
          0                 3           2             1    1     1      -0.1701060427E-03       1    1    1        -0.9533517060E-05      0.1454360692E-03
          0                 4           1             1    1     1       0.1291424911E-04       1    1    1         0.7636330164E-06      0.1220849444E-04
          0                 5           1             1    1     1      -0.8622554536E-06       1    4    1         0.6932690155E-07      0.9074352400E-06

    ------------------------------------------------
       NWT REQUIRED            5 OUTER ITERATIONS 
       AND A TOTAL OF          8 INNER ITERATIONS.
    ------------------------------------------------

 NO OUTPUT CONTROL FOR STRESS PERIOD   41   TIME STEP   16
 
 WELLS WITH REDUCED PUMPING FOR STRESS PERIOD    41 TIME STEP    16
   LAY   ROW   COL         APPL.Q          ACT.Q        GW-HEAD       CELL-BOT
     1     3    50  -0.920019E+00  -0.319548E+00   0.444361E-03   0.000000E+00
     1     5    55  -0.920019E+00  -0.239783E+00   0.371139E-03   0.000000E+00
 
 
 SOLVING FOR HEAD 
                                                   Max.-Head-Change                         Max.-Flux-Residual
  Residual-Control   Outer-Iter.   Inner-Iter.     Column Row Layer    Maximum-Head-Change  Column Row Layer    Maximum-Flux-Residual          L2-NORM 
          0                 1           2             1    1     1      -0.2330263741E-01       1    1    1        -0.1058763464E-02      0.1634490139E-01
          0                 2           2             1    1     1       0.2192693472E-02       1    1    1         0.1058747954E-03      0.1585632954E-02
          0                 3           2             1    1     1      -0.1860365072E-03       1    1    1        -0.9528892141E-05      0.1454412660E-03
          0                 4           1             1    1     1       0.1407873576E-04       1    1    1         0.7632622836E-06      0.1222935465E-04
          0                 5           1             1    1     1      -0.9361390654E-06       1    4    1         0.7057402485E-07      0.9110320297E-06

    ------------------------------------------------
       NWT REQUIRED            5 OUTER ITERATIONS 
       AND A TOTAL OF          8 INNER ITERATIONS.
    ------------------------------------------------

 NO OUTPUT CONTROL FOR STRESS PERIOD   41   TIME STEP   17
 
 WELLS WITH REDUCED PUMPING FOR STRESS PERIOD    41 TIME STEP    17
   LAY   ROW   COL         APPL.Q          ACT.Q        GW-HEAD       CELL-BOT
     1     3    50  -0.920040E+00  -0.319425E+00   0.444251E-03   0.000000E+00
     1     5    55  -0.920040E+00  -0.239706E+00   0.371065E-03   0.000000E+00
 
 
 SOLVING FOR HEAD 
                                                   Max.-Head-Change                         Max.-Flux-Residual
  Residual-Control   Outer-Iter.   Inner-Iter.     Column Row Layer    Maximum-Head-Change  Column Row Layer    Maximum-Flux-Residual          L2-NORM 
          0                 1           2             1    1     1      -0.2561292570E-01       1    1    1        -0.1058198734E-02      0.1633694480E-01
          0                 2           2             1    1     1       0.2404667192E-02       1    1    1         0.1058180923E-03      0.1584874358E-02
          0                 3           2             1    1     1      -0.2034726186E-03       1    1    1        -0.9523811794E-05      0.1454377667E-03
          0                 4           1             1    1     1       0.1534915010E-04       1    1    1         0.7628550307E-06      0.1224885373E-04
          0                 5           1             1    1     1      -0.1016112328E-05       2    4    1         0.7176618055E-07      0.9143015362E-06
          0                 6           1             1    1     1       0.5815575353E-07       2    4    1        -0.5569624761E-08      0.5882543761E-07

    ------------------------------------------------
       NWT REQUIRED            6 OUTER ITERATIONS 
       AND A TOTAL OF          9 INNER ITERATIONS.
    ------------------------------------------------

 NO OUTPUT CONTROL FOR STRESS PERIOD   41   TIME STEP   18
 
 WELLS WITH REDUCED PUMPING FOR STRESS PERIOD    41 TIME STEP    18
   LAY   ROW   COL         APPL.Q          ACT.Q        GW-HEAD       CELL-BOT
     1     3    50  -0.920030E+00  -0.319289E+00   0.444138E-03   0.000000E+00
     1     5    55  -0.920030E+00  -0.239610E+00   0.370980E-03   0.000000E+00
 
 
 SOLVING FOR HEAD 
                                                   Max.-Head-Change                         Max.-Flux-Residual
  Residual-Control   Outer-Iter.   Inner-Iter.     Column Row Layer    Maximum-Head-Change  Column Row Layer    Maximum-Flux-Residual          L2-NORM 
          0                 1           2             1    1     1      -0.2815083085E-01       1    7    1        -0.1057579149E-02      0.1632799143E-01
          0                 2           2             1    1     1       0.2637199743E-02       1    7    1         0.1057558752E-03      0.1583966960E-02
          0                 3           2             1    1     1      -0.2225616498E-03       1    7    1        -0.9518237854E-05      0.1454044142E-03
          0                 4           1             1    1     1       0.1673570324E-04       1    7    1         0.7624082068E-06      0.1226393522E-04
          0                 5           1             1    1     1      -0.1102612616E-05       2    4    1         0.7288698001E-07      0.9168947851E-06
          0                 6           1             1    1     1       0.6277202278E-07       2    4    1        -0.5676842108E-08      0.5912667867E-07

    ------------------------------------------------
       NWT REQUIRED            6 OUTER ITERATIONS 
       AND A TOTAL OF          9 INNER ITERATIONS.
    ------------------------------------------------

 NO OUTPUT CONTROL FOR STRESS PERIOD   41   TIME STEP   19
 
 WELLS WITH REDUCED PUMPING FOR STRESS PERIOD    41 TIME STEP    19
   LAY   ROW   COL         APPL.Q          ACT.Q        GW-HEAD       CELL-BOT
     1     3    50  -0.919980E+00  -0.319139E+00   0.444026E-03   0.000000E+00
     1     5    55  -0.919980E+00  -0.239510E+00   0.370901E-03   0.000000E+00
 
 
 SOLVING FOR HEAD 
                                                   Max.-Head-Change                         Max.-Flux-Residual
  Residual-Control   Outer-Iter.   Inner-Iter.     Column Row Layer    Maximum-Head-Change  Column Row Layer    Maximum-Flux-Residual          L2-NORM 
          0                 1           2             1    1     1      -0.3093845448E-01     100    4    1         0.1913109123E-02      0.1654182401E-01
          0                 2           2             1    1     1       0.2892292811E-02     100    4    1        -0.1900509500E-03      0.1602739557E-02
          0                 3           2             1    1     1      -0.2434649068E-03     100    4    1         0.1698190113E-04      0.1468842278E-03
          0                 4           1             1    1     1       0.1824952961E-04     100    4    1        -0.1349498916E-05      0.1238091283E-04
          0                 5           1             1    1     1      -0.1196043135E-05     100    4    1         0.9402981505E-07      0.9252221734E-06
          0                 6           1             1    1     1       0.6769201971E-07       2    4    1        -0.5776556122E-08      0.5970075158E-07

    ------------------------------------------------
       NWT REQUIRED            6 OUTER ITERATIONS 
       AND A TOTAL OF          9 INNER ITERATIONS.
    ------------------------------------------------

 NO OUTPUT CONTROL FOR STRESS PERIOD   41   TIME STEP   20
 
 WELLS WITH REDUCED PUMPING FOR STRESS PERIOD    41 TIME STEP    20
   LAY   ROW   COL         APPL.Q          ACT.Q        GW-HEAD       CELL-BOT
     1     3    50  -0.919972E+00  -0.318973E+00   0.443887E-03   0.000000E+00
     1     5    55  -0.919972E+00  -0.239402E+00   0.370806E-03   0.000000E+00
 
 
 SOLVING FOR HEAD 
                                                   Max.-Head-Change                         Max.-Flux-Residual
  Residual-Control   Outer-Iter.   Inner-Iter.     Column Row Layer    Maximum-Head-Change  Column Row Layer    Maximum-Flux-Residual          L2-NORM 
          0                 1           2             1    1     1      -0.3399999157E-01      96    4    1         0.1896712246E-02      0.1676070898E-01
          0                 2           2             1    1     1       0.3172139204E-02      95    4    1        -0.1565684472E-03      0.1614047381E-02
          0                 3           2             1    1     1      -0.2663593258E-03      95    4    1         0.1156846711E-04      0.1472117210E-03
          0                 4           1             1    1     1       0.1990278866E-04       1    1    1         0.7613769561E-06      0.1238496007E-04
          0                 5           1             1    1     1      -0.1296761029E-05       2    4    1         0.7491073717E-07      0.9246293313E-06
          0                 6           1             1    1     1       0.7291117404E-07       2    4    1        -0.5868283637E-08      0.5970617553E-07

    ------------------------------------------------
       NWT REQUIRED            6 OUTER ITERATIONS 
       AND A TOTAL OF          9 INNER ITERATIONS.
    ------------------------------------------------

 NO OUTPUT CONTROL FOR STRESS PERIOD   41   TIME STEP   21
 
 WELLS WITH REDUCED PUMPING FOR STRESS PERIOD    41 TIME STEP    21
   LAY   ROW   COL         APPL.Q          ACT.Q        GW-HEAD       CELL-BOT
     1     3    50  -0.920000E+00  -0.318781E+00   0.443716E-03   0.000000E+00
     1     5    55  -0.920000E+00  -0.239281E+00   0.370689E-03   0.000000E+00
 
 
 SOLVING FOR HEAD 
                                                   Max.-Head-Change                         Max.-Flux-Residual
  Residual-Control   Outer-Iter.   Inner-Iter.     Column Row Layer    Maximum-Head-Change  Column Row Layer    Maximum-Flux-Residual          L2-NORM 
          0                 1           2             1    1     1      -0.3736188944E-01      90    4    1         0.1856706621E-02      0.1672831715E-01
          0                 2           2             1    1     1       0.3479136885E-02      90    4    1        -0.1622877021E-03      0.1614511180E-02
          0                 3           2             1    1     1      -0.2914385423E-03      90    4    1         0.1270504114E-04      0.1475075150E-03
          0                 4           1             1    1     1       0.2170869301E-04      90    4    1        -0.8838746695E-06      0.1243163797E-04
          0                 5           1             1    1     1      -0.1405032998E-05       2    4    1         0.7581429529E-07      0.9281373909E-06
          0                 6           1             1    1     1       0.7841041321E-07       2    4    1        -0.5951594773E-08      0.5996489446E-07

    ------------------------------------------------
       NWT REQUIRED            6 OUTER ITERATIONS 
       AND A TOTAL OF          9 INNER ITERATIONS.
    ------------------------------------------------

 NO OUTPUT CONTROL FOR STRESS PERIOD   41   TIME STEP   22
 
 WELLS WITH REDUCED PUMPING FOR STRESS PERIOD    41 TIME STEP    22
   LAY   ROW   COL         APPL.Q          ACT.Q        GW-HEAD       CELL-BOT
     1     3    50  -0.919994E+00  -0.318565E+00   0.443535E-03   0.000000E+00
     1     5    55  -0.919994E+00  -0.239139E+00   0.370563E-03   0.000000E+00
 
 
 SOLVING FOR HEAD 
                                                   Max.-Head-Change                         Max.-Flux-Residual
  Residual-Control   Outer-Iter.   Inner-Iter.     Column Row Layer    Maximum-Head-Change  Column Row Layer    Maximum-Flux-Residual          L2-NORM 
          0                 1           2             1    1     1      -0.4044994026E-01      85    4    1         0.1804674008E-02      0.1649924031E-01
          0                 2           2             1    1     1       0.3699821504E-02      85    4    1        -0.1652014587E-03      0.1614685095E-02
          0                 3           2             1    1     1      -0.3048745450E-03      85    4    1         0.1360364570E-04      0.1501445528E-03
          0                 4           1             1    1     1       0.2237866615E-04       7    4    1        -0.1149176509E-05      0.1284092540E-04
          0                 5           1            17    7     1      -0.1428605101E-05       6    4    1         0.1051380671E-06      0.9651034853E-06
          0                 6           1            19    7     1       0.7896030725E-07       6    4    1        -0.7625800436E-08      0.6245869524E-07

    ------------------------------------------------
       NWT REQUIRED            6 OUTER ITERATIONS 
       AND A TOTAL OF          9 INNER ITERATIONS.
    ------------------------------------------------

 NO OUTPUT CONTROL FOR STRESS PERIOD   41   TIME STEP   23
 
 WELLS WITH REDUCED PUMPING FOR STRESS PERIOD    41 TIME STEP    23
   LAY   ROW   COL         APPL.Q          ACT.Q        GW-HEAD       CELL-BOT
     1     3    50  -0.920017E+00  -0.318324E+00   0.443323E-03   0.000000E+00
     1     5    55  -0.920017E+00  -0.238982E+00   0.370415E-03   0.000000E+00
 
 
 SOLVING FOR HEAD 
                                                   Max.-Head-Change                         Max.-Flux-Residual
  Residual-Control   Outer-Iter.   Inner-Iter.     Column Row Layer    Maximum-Head-Change  Column Row Layer    Maximum-Flux-Residual          L2-NORM 
          0                 1           2            26    7     1      -0.3779427875E-01      81    4    1         0.1711058393E-02      0.1690119649E-01
          0                 2           2            26    7     1       0.3469390153E-02      15    4    1        -0.1839080931E-03      0.1742052447E-02
          0                 3           2            27    7     1      -0.2875203038E-03       1    4    1         0.1963170957E-04      0.1656001739E-03
          0                 4           1            27    7     1       0.2124186814E-04       1    4    1        -0.1803693916E-05      0.1414504967E-04
          0                 5           1            27    7     1      -0.1364528734E-05       1    4    1         0.1393824149E-06      0.1048748410E-05
          0                 6           1            27    7     1       0.7600557889E-07       2    4    1        -0.9122864242E-08      0.6670834406E-07

    ------------------------------------------------
       NWT REQUIRED            6 OUTER ITERATIONS 
       AND A TOTAL OF          9 INNER ITERATIONS.
    ------------------------------------------------

 NO OUTPUT CONTROL FOR STRESS PERIOD   41   TIME STEP   24
 
 WELLS WITH REDUCED PUMPING FOR STRESS PERIOD    41 TIME STEP    24
   LAY   ROW   COL         APPL.Q          ACT.Q        GW-HEAD       CELL-BOT
     1     3    50  -0.919996E+00  -0.318046E+00   0.443094E-03   0.000000E+00
     1     5    55  -0.919996E+00  -0.238797E+00   0.370253E-03   0.000000E+00
 
 
 SOLVING FOR HEAD 
                                                   Max.-Head-Change                         Max.-Flux-Residual
  Residual-Control   Outer-Iter.   Inner-Iter.     Column Row Layer    Maximum-Head-Change  Column Row Layer    Maximum-Flux-Residual          L2-NORM 
          0                 1           2            33    1     1      -0.3611725396E-01      76    4    1         0.1831384124E-02      0.1408809436E-01
          0                 2           2            33    1     1       0.3324655566E-02      26    4    1        -0.1886573671E-03      0.1425469306E-02
          0                 3           2            33    7     1      -0.2759513428E-03      26    4    1         0.1943880606E-04      0.1349863308E-03
          0                 4           1            33    7     1       0.2042506214E-04      26    4    1        -0.1728666538E-05      0.1159116696E-04
          0                 5           1            33    7     1      -0.1320245331E-05      26    4    1         0.1318193306E-06      0.8631201098E-06
          0                 6           1            33    7     1       0.7409115813E-07      26    4    1        -0.8475199209E-08      0.5521705261E-07

    ------------------------------------------------
       NWT REQUIRED            6 OUTER ITERATIONS 
       AND A TOTAL OF          9 INNER ITERATIONS.
    ------------------------------------------------

 NO OUTPUT CONTROL FOR STRESS PERIOD   41   TIME STEP   25
 
 WELLS WITH REDUCED PUMPING FOR STRESS PERIOD    41 TIME STEP    25
   LAY   ROW   COL         APPL.Q          ACT.Q        GW-HEAD       CELL-BOT
     1     3    50  -0.920010E+00  -0.317710E+00   0.442805E-03   0.000000E+00
     1     5    55  -0.920010E+00  -0.238564E+00   0.370039E-03   0.000000E+00
 
 
 SOLVING FOR HEAD 
                                                   Max.-Head-Change                         Max.-Flux-Residual
  Residual-Control   Outer-Iter.   Inner-Iter.     Column Row Layer    Maximum-Head-Change  Column Row Layer    Maximum-Flux-Residual          L2-NORM 
          0                 1           3             3    1     1      -0.3774322401E-01      72    4    1         0.1665912294E-02      0.1288919725E-01
          0                 2           2             3    1     1       0.3426289468E-02      32    4    1        -0.1745616939E-03      0.1290753584E-02
          0                 3           2             3    1     1      -0.2796069771E-03      32    4    1         0.1760559290E-04      0.1217658001E-03
          0                 4           1             3    1     1       0.2025036042E-04      32    4    1        -0.1539698550E-05      0.1047014960E-04
          0                 5           1             1    1     1      -0.1244077433E-05      32    4    1         0.1158364888E-06      0.7782681818E-06
          0                 6           1            37    7     1       0.7028412985E-07      32    4    1        -0.7381155243E-08      0.4981419738E-07

    ------------------------------------------------
       NWT REQUIRED            6 OUTER ITERATIONS 
       AND A TOTAL OF         10 INNER ITERATIONS.
    ------------------------------------------------

 NO OUTPUT CONTROL FOR STRESS PERIOD   41   TIME STEP   26
 
 WELLS WITH REDUCED PUMPING FOR STRESS PERIOD    41 TIME STEP    26
   LAY   ROW   COL         APPL.Q          ACT.Q        GW-HEAD       CELL-BOT
     1     3    50  -0.920006E+00  -0.317328E+00   0.442482E-03   0.000000E+00
     1     5    55  -0.920006E+00  -0.238297E+00   0.369798E-03   0.000000E+00
 
 
 SOLVING FOR HEAD 
                                                   Max.-Head-Change                         Max.-Flux-Residual
  Residual-Control   Outer-Iter.   Inner-Iter.     Column Row Layer    Maximum-Head-Change  Column Row Layer    Maximum-Flux-Residual          L2-NORM 
          0                 1           3             2    1     1      -0.4136876786E-01      68    4    1         0.1644683817E-02      0.1222596405E-01
          0                 2           2             2    1     1       0.3746634127E-02      37    4    1        -0.1711469928E-03      0.1207575437E-02
          0                 3           2             3    1     1      -0.3048044248E-03      37    4    1         0.1654288745E-04      0.1130987438E-03
          0                 4           1             3    1     1       0.2197389213E-04      37    4    1        -0.1400478568E-05      0.9715918996E-05
          0                 5           1             1    1     1      -0.1326926339E-05      38    4    1         0.9965749204E-07      0.7187345606E-06
          0                 6           1             1    1     1       0.6977302321E-07      38    4    1        -0.6275231890E-08      0.4592639067E-07

    ------------------------------------------------
       NWT REQUIRED            6 OUTER ITERATIONS 
       AND A TOTAL OF         10 INNER ITERATIONS.
    ------------------------------------------------

 NO OUTPUT CONTROL FOR STRESS PERIOD   41   TIME STEP   27
 
 WELLS WITH REDUCED PUMPING FOR STRESS PERIOD    41 TIME STEP    27
   LAY   ROW   COL         APPL.Q          ACT.Q        GW-HEAD       CELL-BOT
     1     3    50  -0.920002E+00  -0.316923E+00   0.442138E-03   0.000000E+00
     1     5    55  -0.920002E+00  -0.238020E+00   0.369549E-03   0.000000E+00
 
 
 SOLVING FOR HEAD 
                                                   Max.-Head-Change                         Max.-Flux-Residual
  Residual-Control   Outer-Iter.   Inner-Iter.     Column Row Layer    Maximum-Head-Change  Column Row Layer    Maximum-Flux-Residual          L2-NORM 
          0                 1           3             1    1     1      -0.4543387730E-01      64    4    1         0.1822311168E-02      0.1169585288E-01
          0                 2           2             1    1     1       0.4107277046E-02      64    4    1        -0.1708171749E-03      0.1136568357E-02
          0                 3           2             1    1     1      -0.3332904060E-03      41    4    1         0.1498866383E-04      0.1056323348E-03
          0                 4           1             1    1     1       0.2392285371E-04      41    4    1        -0.1220129713E-05      0.9080777881E-05
          0                 5           1             1    1     1      -0.1413702233E-05      42    4    1         0.8443090849E-07      0.6686263078E-06
          0                 6           1             1    1     1       0.7289683600E-07       2    4    1        -0.5332548625E-08      0.4265998985E-07

    ------------------------------------------------
       NWT REQUIRED            6 OUTER ITERATIONS 
       AND A TOTAL OF         10 INNER ITERATIONS.
    ------------------------------------------------

 NO OUTPUT CONTROL FOR STRESS PERIOD   41   TIME STEP   28
 
 WELLS WITH REDUCED PUMPING FOR STRESS PERIOD    41 TIME STEP    28
   LAY   ROW   COL         APPL.Q          ACT.Q        GW-HEAD       CELL-BOT
     1     3    50  -0.919984E+00  -0.316499E+00   0.441784E-03   0.000000E+00
     1     5    55  -0.919984E+00  -0.237736E+00   0.369295E-03   0.000000E+00
 
 
 SOLVING FOR HEAD 
                                                   Max.-Head-Change                         Max.-Flux-Residual
  Residual-Control   Outer-Iter.   Inner-Iter.     Column Row Layer    Maximum-Head-Change  Column Row Layer    Maximum-Flux-Residual          L2-NORM 
          0                 1           3             1    1     1      -0.4989597906E-01      45    4    1         0.1761507175E-02      0.1129601887E-01
          0                 2           2             1    1     1       0.4503313945E-02      45    4    1        -0.1682227528E-03      0.1087190087E-02
          0                 3           2             1    1     1      -0.3645850174E-03      45    4    1         0.1440812393E-04      0.1007180444E-03
          0                 4           1             1    1     1       0.2605575930E-04      45    4    1        -0.1097717409E-05      0.8687579325E-05
          0                 5           1             1    1     1      -0.1499266611E-05       2    4    1         0.7159720283E-07      0.6366398798E-06
          0                 6           1             1    1     1       0.7552146065E-07       2    4    1        -0.5345523135E-08      0.4058242579E-07

    ------------------------------------------------
       NWT REQUIRED            6 OUTER ITERATIONS 
       AND A TOTAL OF         10 INNER ITERATIONS.
    ------------------------------------------------

 NO OUTPUT CONTROL FOR STRESS PERIOD   41   TIME STEP   29
 
 WELLS WITH REDUCED PUMPING FOR STRESS PERIOD    41 TIME STEP    29
   LAY   ROW   COL         APPL.Q          ACT.Q        GW-HEAD       CELL-BOT
     1     3    50  -0.920010E+00  -0.316058E+00   0.441402E-03   0.000000E+00
     1     5    55  -0.920010E+00  -0.237438E+00   0.369020E-03   0.000000E+00
 
 
 SOLVING FOR HEAD 
                                                   Max.-Head-Change                         Max.-Flux-Residual
  Residual-Control   Outer-Iter.   Inner-Iter.     Column Row Layer    Maximum-Head-Change  Column Row Layer    Maximum-Flux-Residual          L2-NORM 
          0                 1           3             1    1     1      -0.4959293725E-01      58    4    1         0.1854916327E-02      0.1085938795E-01
          0                 2           2             1    1     1       0.4409654108E-02      58    4    1        -0.1574831148E-03      0.1085265749E-02
          0                 3           2             1    1     1      -0.3521972912E-03      58    4    1         0.1183863078E-04      0.1041153918E-03
          0                 4           1             1    1     1       0.2486399851E-04       7    4    1        -0.1146735357E-05      0.9163539214E-05
          0                 5           1             1    1     1      -0.1399097126E-05       6    4    1         0.9879084573E-07      0.6739185381E-06
          0                 6           1             1    1     1       0.7097065355E-07       4    4    1        -0.6765450422E-08      0.4283161242E-07

    ------------------------------------------------
       NWT REQUIRED            6 OUTER ITERATIONS 
       AND A TOTAL OF         10 INNER ITERATIONS.
    ------------------------------------------------

 NO OUTPUT CONTROL FOR STRESS PERIOD   41   TIME STEP   30
 
 WELLS WITH REDUCED PUMPING FOR STRESS PERIOD    41 TIME STEP    30
   LAY   ROW   COL         APPL.Q          ACT.Q        GW-HEAD       CELL-BOT
     1     3    50  -0.919898E+00  -0.315798E+00   0.441213E-03   0.000000E+00
     1     5    55  -0.919898E+00  -0.237277E+00   0.368900E-03   0.000000E+00
 



 STREAM LISTING     PERIOD     41   STEP       30

 LAYER ROW COL. STREAM  RCH.   FLOW INTO    STREAM     FLOW OUT OF   OVRLND.    DIRECT     STREAM      STREAM      STREAM     STREAM  STREAMBED   FLOW TO   CHNG. UNSAT. 
                SEG.NO.  NO.   STRM. RCH.    LOSS       STRM. RCH.   RUNOFF     PRECIP       ET         HEAD        DEPTH      WIDTH  CONDCTNC.   WAT. TAB.

   1    4    1     1     1    1.9700E+01  5.1636E-03   1.9695E+01  0.000E+00  0.000E+00  0.000E+00  1.43221E+02  3.371E+00  5.846E+00  1.334E-03  3.618E-03  1.545E-03
   1    4    2     1     2    1.9695E+01  5.1625E-03   1.9690E+01  0.000E+00  0.000E+00  0.000E+00  1.42921E+02  3.371E+00  5.846E+00  1.334E-03  3.669E-03  1.494E-03
   1    4    3     1     3    1.9690E+01  5.1614E-03   1.9685E+01  0.000E+00  0.000E+00  0.000E+00  1.42620E+02  3.370E+00  5.845E+00  1.334E-03  3.712E-03  1.450E-03
   1    4    4     1     4    1.9685E+01  5.1603E-03   1.9679E+01  0.000E+00  0.000E+00  0.000E+00  1.42320E+02  3.370E+00  5.845E+00  1.333E-03  3.747E-03  1.413E-03
   1    4    5     1     5    1.9679E+01  5.1591E-03   1.9674E+01  0.000E+00  0.000E+00  0.000E+00  1.42020E+02  3.370E+00  5.844E+00  1.333E-03  3.775E-03  1.385E-03
   1    4    6     1     6    1.9674E+01  5.1580E-03   1.9669E+01  0.000E+00  0.000E+00  0.000E+00  1.41719E+02  3.369E+00  5.843E+00  1.333E-03  3.794E-03  1.364E-03
   1    4    7     1     7    1.9669E+01  5.1569E-03   1.9664E+01  0.000E+00  0.000E+00  0.000E+00  1.41419E+02  3.369E+00  5.843E+00  1.333E-03  3.806E-03  1.351E-03
   1    4    8     1     8    1.9664E+01  5.1558E-03   1.9659E+01  0.000E+00  0.000E+00  0.000E+00  1.41118E+02  3.368E+00  5.842E+00  1.333E-03  3.810E-03  1.346E-03
   1    4    9     1     9    1.9659E+01  5.1547E-03   1.9654E+01  0.000E+00  0.000E+00  0.000E+00  1.40818E+02  3.368E+00  5.842E+00  1.333E-03  3.806E-03  1.349E-03
   1    4   10     1    10    1.9654E+01  5.1536E-03   1.9648E+01  0.000E+00  0.000E+00  0.000E+00  1.40517E+02  3.367E+00  5.841E+00  1.333E-03  3.794E-03  1.360E-03
   1    4   11     1    11    1.9648E+01  5.1524E-03   1.9643E+01  0.000E+00  0.000E+00  0.000E+00  1.40217E+02  3.367E+00  5.841E+00  1.332E-03  3.773E-03  1.379E-03
   1    4   12     1    12    1.9643E+01  5.1513E-03   1.9638E+01  0.000E+00  0.000E+00  0.000E+00  1.39917E+02  3.367E+00  5.840E+00  1.332E-03  3.745E-03  1.407E-03
   1    4   13     1    13    1.9638E+01  5.1502E-03   1.9633E+01  0.000E+00  0.000E+00  0.000E+00  1.39616E+02  3.366E+00  5.840E+00  1.332E-03  3.708E-03  1.443E-03
   1    4   14     1    14    1.9633E+01  5.1491E-03   1.9628E+01  0.000E+00  0.000E+00  0.000E+00  1.39316E+02  3.366E+00  5.839E+00  1.332E-03  3.662E-03  1.487E-03
   1    4   15     1    15    1.9628E+01  5.1480E-03   1.9623E+01  0.000E+00  0.000E+00  0.000E+00  1.39015E+02  3.365E+00  5.839E+00  1.332E-03  3.608E-03  1.540E-03
   1    4   16     1    16    1.9623E+01  5.1468E-03   1.9618E+01  0.000E+00  0.000E+00  0.000E+00  1.38715E+02  3.365E+00  5.838E+00  1.332E-03  3.544E-03  1.603E-03
   1    4   17     1    17    1.9618E+01  5.1457E-03   1.9612E+01  0.000E+00  0.000E+00  0.000E+00  1.38414E+02  3.364E+00  5.838E+00  1.332E-03  3.472E-03  1.674E-03
   1    4   18     1    18    1.9612E+01  5.1446E-03   1.9607E+01  0.000E+00  0.000E+00  0.000E+00  1.38114E+02  3.364E+00  5.837E+00  1.331E-03  3.390E-03  1.755E-03
   1    4   19     1    19    1.9607E+01  5.1435E-03   1.9602E+01  0.000E+00  0.000E+00  0.000E+00  1.37814E+02  3.364E+00  5.837E+00  1.331E-03  3.299E-03  1.844E-03
   1    4   20     1    20    1.9602E+01  5.1424E-03   1.9597E+01  0.000E+00  0.000E+00  0.000E+00  1.37513E+02  3.363E+00  5.836E+00  1.331E-03  3.206E-03  1.937E-03
   1    4   21     1    21    1.9597E+01  5.1413E-03   1.9592E+01  0.000E+00  0.000E+00  0.000E+00  1.37213E+02  3.363E+00  5.836E+00  1.331E-03  3.132E-03  2.009E-03
   1    4   22     1    22    1.9592E+01  5.1401E-03   1.9587E+01  0.000E+00  0.000E+00  0.000E+00  1.36912E+02  3.362E+00  5.835E+00  1.331E-03  3.132E-03  2.008E-03
   1    4   23     1    23    1.9587E+01  5.1390E-03   1.9582E+01  0.000E+00  0.000E+00  0.000E+00  1.36612E+02  3.362E+00  5.835E+00  1.331E-03  3.132E-03  2.007E-03
   1    4   24     1    24    1.9582E+01  5.1379E-03   1.9576E+01  0.000E+00  0.000E+00  0.000E+00  1.36311E+02  3.361E+00  5.834E+00  1.331E-03  3.133E-03  2.005E-03
   1    4   25     1    25    1.9576E+01  5.1368E-03   1.9571E+01  0.000E+00  0.000E+00  0.000E+00  1.36011E+02  3.361E+00  5.834E+00  1.330E-03  3.137E-03  2.000E-03
   1    4   26     1    26    1.9571E+01  5.1357E-03   1.9566E+01  0.000E+00  0.000E+00  0.000E+00  1.35711E+02  3.361E+00  5.833E+00  1.330E-03  3.137E-03  1.998E-03
   1    4   27     1    27    1.9566E+01  5.1346E-03   1.9561E+01  0.000E+00  0.000E+00  0.000E+00  1.35410E+02  3.360E+00  5.833E+00  1.330E-03  3.138E-03  1.997E-03
   1    4   28     1    28    1.9561E+01  5.1335E-03   1.9556E+01  0.000E+00  0.000E+00  0.000E+00  1.35110E+02  3.360E+00  5.832E+00  1.330E-03  3.139E-03  1.995E-03
   1    4   29     1    29    1.9556E+01  5.1323E-03   1.9551E+01  0.000E+00  0.000E+00  0.000E+00  1.34809E+02  3.359E+00  5.832E+00  1.330E-03  3.139E-03  1.993E-03
   1    4   30     1    30    1.9551E+01  5.1312E-03   1.9546E+01  0.000E+00  0.000E+00  0.000E+00  1.34509E+02  3.359E+00  5.831E+00  1.330E-03  3.153E-03  1.978E-03
   1    4   31     1    31    1.9546E+01  5.1301E-03   1.9540E+01  0.000E+00  0.000E+00  0.000E+00  1.34208E+02  3.358E+00  5.831E+00  1.330E-03  3.154E-03  1.976E-03
   1    4   32     1    32    1.9540E+01  5.1290E-03   1.9535E+01  0.000E+00  0.000E+00  0.000E+00  1.33908E+02  3.358E+00  5.830E+00  1.329E-03  3.155E-03  1.974E-03
   1    4   33     1    33    1.9535E+01  5.1279E-03   1.9530E+01  0.000E+00  0.000E+00  0.000E+00  1.33608E+02  3.358E+00  5.830E+00  1.329E-03  3.156E-03  1.972E-03
   1    4   34     1    34    1.9530E+01  5.1268E-03   1.9525E+01  0.000E+00  0.000E+00  0.000E+00  1.33307E+02  3.357E+00  5.829E+00  1.329E-03  3.157E-03  1.970E-03
   1    4   35     1    35    1.9525E+01  5.1257E-03   1.9520E+01  0.000E+00  0.000E+00  0.000E+00  1.33007E+02  3.357E+00  5.829E+00  1.329E-03  3.158E-03  1.967E-03
   1    4   36     1    36    1.9520E+01  5.1245E-03   1.9515E+01  0.000E+00  0.000E+00  0.000E+00  1.32706E+02  3.356E+00  5.828E+00  1.329E-03  3.160E-03  1.965E-03
   1    4   37     1    37    1.9515E+01  5.1234E-03   1.9510E+01  0.000E+00  0.000E+00  0.000E+00  1.32406E+02  3.356E+00  5.828E+00  1.329E-03  3.161E-03  1.962E-03
   1    4   38     1    38    1.9510E+01  5.1223E-03   1.9505E+01  0.000E+00  0.000E+00  0.000E+00  1.32105E+02  3.355E+00  5.827E+00  1.329E-03  3.163E-03  1.960E-03
   1    4   39     1    39    1.9505E+01  5.1212E-03   1.9499E+01  0.000E+00  0.000E+00  0.000E+00  1.31805E+02  3.355E+00  5.826E+00  1.328E-03  3.164E-03  1.957E-03
   1    4   40     1    40    1.9499E+01  5.1201E-03   1.9494E+01  0.000E+00  0.000E+00  0.000E+00  1.31505E+02  3.355E+00  5.826E+00  1.328E-03  3.166E-03  1.954E-03
   1    4   41     1    41    1.9494E+01  5.1190E-03   1.9489E+01  0.000E+00  0.000E+00  0.000E+00  1.31204E+02  3.354E+00  5.825E+00  1.328E-03  3.168E-03  1.951E-03
   1    4   42     1    42    1.9489E+01  5.1179E-03   1.9484E+01  0.000E+00  0.000E+00  0.000E+00  1.30904E+02  3.354E+00  5.825E+00  1.328E-03  3.170E-03  1.947E-03
   1    4   43     1    43    1.9484E+01  5.1168E-03   1.9479E+01  0.000E+00  0.000E+00  0.000E+00  1.30603E+02  3.353E+00  5.824E+00  1.328E-03  3.173E-03  1.944E-03
   1    4   44     1    44    1.9479E+01  5.1156E-03   1.9474E+01  0.000E+00  0.000E+00  0.000E+00  1.30303E+02  3.353E+00  5.824E+00  1.328E-03  3.176E-03  1.939E-03
   1    4   45     1    45    1.9474E+01  5.1145E-03   1.9469E+01  0.000E+00  0.000E+00  0.000E+00  1.30002E+02  3.352E+00  5.823E+00  1.328E-03  3.181E-03  1.934E-03
   1    4   46     1    46    1.9469E+01  5.1134E-03   1.9464E+01  0.000E+00  0.000E+00  0.000E+00  1.29702E+02  3.352E+00  5.823E+00  1.327E-03  3.190E-03  1.923E-03
   1    4   47     1    47    1.9464E+01  5.1123E-03   1.9459E+01  0.000E+00  0.000E+00  0.000E+00  1.29402E+02  3.352E+00  5.822E+00  1.327E-03  3.201E-03  1.912E-03
   1    4   48     1    48    1.9459E+01  5.1112E-03   1.9453E+01  0.000E+00  0.000E+00  0.000E+00  1.29101E+02  3.351E+00  5.822E+00  1.327E-03  2.674E-03  2.438E-03
   1    4   49     1    49    1.9453E+01  5.1101E-03   1.9448E+01  0.000E+00  0.000E+00  0.000E+00  1.28801E+02  3.351E+00  5.821E+00  1.327E-03  1.491E-03  3.619E-03
   1    4   50     1    50    1.9448E+01  5.1090E-03   1.9443E+01  0.000E+00  0.000E+00  0.000E+00  1.28500E+02  3.350E+00  5.821E+00  1.327E-03  1.048E-03  4.061E-03
   1    4   51     1    51    1.9443E+01  5.1079E-03   1.9438E+01  0.000E+00  0.000E+00  0.000E+00  1.28200E+02  3.350E+00  5.820E+00  1.327E-03  1.046E-03  4.062E-03
   1    4   52     1    52    1.9438E+01  5.1068E-03   1.9433E+01  0.000E+00  0.000E+00  0.000E+00  1.27899E+02  3.349E+00  5.820E+00  1.327E-03  1.046E-03  4.061E-03
   1    4   53     1    53    1.9433E+01  5.1056E-03   1.9428E+01  0.000E+00  0.000E+00  0.000E+00  1.27599E+02  3.349E+00  5.819E+00  1.327E-03  1.046E-03  4.060E-03
   1    4   54     1    54    1.9428E+01  5.1045E-03   1.9423E+01  0.000E+00  0.000E+00  0.000E+00  1.27299E+02  3.349E+00  5.819E+00  1.326E-03  1.046E-03  4.059E-03
   1    4   55     1    55    1.9423E+01  5.1034E-03   1.9418E+01  0.000E+00  0.000E+00  0.000E+00  1.26998E+02  3.348E+00  5.818E+00  1.326E-03  1.047E-03  4.056E-03
   1    4   56     1    56    1.9418E+01  5.1023E-03   1.9413E+01  0.000E+00  0.000E+00  0.000E+00  1.26698E+02  3.348E+00  5.818E+00  1.326E-03  1.411E-03  3.691E-03
   1    4   57     1    57    1.9413E+01  5.1012E-03   1.9407E+01  0.000E+00  0.000E+00  0.000E+00  1.26397E+02  3.347E+00  5.817E+00  1.326E-03  2.517E-03  2.584E-03
   1    4   58     1    58    1.9407E+01  5.1001E-03   1.9402E+01  0.000E+00  0.000E+00  0.000E+00  1.26097E+02  3.347E+00  5.817E+00  1.326E-03  3.207E-03  1.893E-03
   1    4   59     1    59    1.9402E+01  5.0990E-03   1.9397E+01  0.000E+00  0.000E+00  0.000E+00  1.25796E+02  3.346E+00  5.816E+00  1.326E-03  3.196E-03  1.903E-03
   1    4   60     1    60    1.9397E+01  5.0979E-03   1.9392E+01  0.000E+00  0.000E+00  0.000E+00  1.25496E+02  3.346E+00  5.816E+00  1.326E-03  3.186E-03  1.912E-03
   1    4   61     1    61    1.9392E+01  5.0968E-03   1.9387E+01  0.000E+00  0.000E+00  0.000E+00  1.25196E+02  3.346E+00  5.815E+00  1.325E-03  3.180E-03  1.917E-03
   1    4   62     1    62    1.9387E+01  5.0957E-03   1.9382E+01  0.000E+00  0.000E+00  0.000E+00  1.24895E+02  3.345E+00  5.815E+00  1.325E-03  3.177E-03  1.919E-03
   1    4   63     1    63    1.9382E+01  5.0946E-03   1.9377E+01  0.000E+00  0.000E+00  0.000E+00  1.24595E+02  3.345E+00  5.814E+00  1.325E-03  3.174E-03  1.920E-03
   1    4   64     1    64    1.9377E+01  5.0935E-03   1.9372E+01  0.000E+00  0.000E+00  0.000E+00  1.24294E+02  3.344E+00  5.814E+00  1.325E-03  3.172E-03  1.922E-03
   1    4   65     1    65    1.9372E+01  5.0923E-03   1.9367E+01  0.000E+00  0.000E+00  0.000E+00  1.23994E+02  3.344E+00  5.813E+00  1.325E-03  3.170E-03  1.922E-03
   1    4   66     1    66    1.9367E+01  5.0912E-03   1.9362E+01  0.000E+00  0.000E+00  0.000E+00  1.23693E+02  3.343E+00  5.813E+00  1.325E-03  3.169E-03  1.922E-03
   1    4   67     1    67    1.9362E+01  5.0901E-03   1.9357E+01  0.000E+00  0.000E+00  0.000E+00  1.23393E+02  3.343E+00  5.812E+00  1.325E-03  3.168E-03  1.922E-03
   1    4   68     1    68    1.9357E+01  5.0890E-03   1.9351E+01  0.000E+00  0.000E+00  0.000E+00  1.23093E+02  3.343E+00  5.812E+00  1.324E-03  3.167E-03  1.922E-03
   1    4   69     1    69    1.9351E+01  5.0879E-03   1.9346E+01  0.000E+00  0.000E+00  0.000E+00  1.22792E+02  3.342E+00  5.811E+00  1.324E-03  3.166E-03  1.922E-03
   1    4   70     1    70    1.9346E+01  5.0868E-03   1.9341E+01  0.000E+00  0.000E+00  0.000E+00  1.22492E+02  3.342E+00  5.811E+00  1.324E-03  3.165E-03  1.922E-03
   1    4   71     1    71    1.9341E+01  5.0857E-03   1.9336E+01  0.000E+00  0.000E+00  0.000E+00  1.22191E+02  3.341E+00  5.810E+00  1.324E-03  3.165E-03  1.921E-03
   1    4   72     1    72    1.9336E+01  5.0846E-03   1.9331E+01  0.000E+00  0.000E+00  0.000E+00  1.21891E+02  3.341E+00  5.810E+00  1.324E-03  3.164E-03  1.920E-03
   1    4   73     1    73    1.9331E+01  5.0835E-03   1.9326E+01  0.000E+00  0.000E+00  0.000E+00  1.21590E+02  3.340E+00  5.809E+00  1.324E-03  3.164E-03  1.919E-03
   1    4   74     1    74    1.9326E+01  5.0824E-03   1.9321E+01  0.000E+00  0.000E+00  0.000E+00  1.21290E+02  3.340E+00  5.808E+00  1.324E-03  3.164E-03  1.918E-03
   1    4   75     1    75    1.9321E+01  5.0813E-03   1.9316E+01  0.000E+00  0.000E+00  0.000E+00  1.20990E+02  3.340E+00  5.808E+00  1.323E-03  3.164E-03  1.917E-03
   1    4   76     1    76    1.9316E+01  5.0802E-03   1.9311E+01  0.000E+00  0.000E+00  0.000E+00  1.20689E+02  3.339E+00  5.807E+00  1.323E-03  3.152E-03  1.929E-03
   1    4   77     1    77    1.9311E+01  5.0791E-03   1.9306E+01  0.000E+00  0.000E+00  0.000E+00  1.20389E+02  3.339E+00  5.807E+00  1.323E-03  3.152E-03  1.927E-03
   1    4   78     1    78    1.9306E+01  5.0780E-03   1.9301E+01  0.000E+00  0.000E+00  0.000E+00  1.20088E+02  3.338E+00  5.806E+00  1.323E-03  3.153E-03  1.925E-03
   1    4   79     1    79    1.9301E+01  5.0769E-03   1.9296E+01  0.000E+00  0.000E+00  0.000E+00  1.19788E+02  3.338E+00  5.806E+00  1.323E-03  3.154E-03  1.923E-03
   1    4   80     1    80    1.9296E+01  5.0758E-03   1.9290E+01  0.000E+00  0.000E+00  0.000E+00  1.19487E+02  3.337E+00  5.805E+00  1.323E-03  3.401E-03  1.674E-03
   1    4   81     1    81    1.9290E+01  5.0746E-03   1.9285E+01  0.000E+00  0.000E+00  0.000E+00  1.19187E+02  3.337E+00  5.805E+00  1.323E-03  3.660E-03  1.415E-03
   1    4   82     1    82    1.9285E+01  5.0735E-03   1.9280E+01  0.000E+00  0.000E+00  0.000E+00  1.18887E+02  3.337E+00  5.804E+00  1.322E-03  3.911E-03  1.163E-03
   1    4   83     1    83    1.9280E+01  5.0724E-03   1.9275E+01  0.000E+00  0.000E+00  0.000E+00  1.18586E+02  3.336E+00  5.804E+00  1.322E-03  4.155E-03  9.177E-04
   1    4   84     1    84    1.9275E+01  5.0713E-03   1.9270E+01  0.000E+00  0.000E+00  0.000E+00  1.18286E+02  3.336E+00  5.803E+00  1.322E-03  4.340E-03  7.318E-04
   1    4   85     1    85    1.9270E+01  5.0702E-03   1.9265E+01  0.000E+00  0.000E+00  0.000E+00  1.17985E+02  3.335E+00  5.803E+00  1.322E-03  4.340E-03  7.303E-04
   1    4   86     1    86    1.9265E+01  5.0691E-03   1.9260E+01  0.000E+00  0.000E+00  0.000E+00  1.17685E+02  3.335E+00  5.802E+00  1.322E-03  4.340E-03  7.294E-04
   1    4   87     1    87    1.9260E+01  5.0680E-03   1.9255E+01  0.000E+00  0.000E+00  0.000E+00  1.17384E+02  3.334E+00  5.802E+00  1.322E-03  4.339E-03  7.286E-04
   1    4   88     1    88    1.9255E+01  5.0669E-03   1.9250E+01  0.000E+00  0.000E+00  0.000E+00  1.17084E+02  3.334E+00  5.801E+00  1.322E-03  4.339E-03  7.279E-04
   1    4   89     1    89    1.9250E+01  5.0658E-03   1.9245E+01  0.000E+00  0.000E+00  0.000E+00  1.16784E+02  3.334E+00  5.801E+00  1.321E-03  4.339E-03  7.268E-04
   1    4   90     1    90    1.9245E+01  5.0647E-03   1.9240E+01  0.000E+00  0.000E+00  0.000E+00  1.16483E+02  3.333E+00  5.800E+00  1.321E-03  4.340E-03  7.252E-04
   1    4   91     1    91    1.9240E+01  5.0636E-03   1.9235E+01  0.000E+00  0.000E+00  0.000E+00  1.16183E+02  3.333E+00  5.800E+00  1.321E-03  4.340E-03  7.238E-04
   1    4   92     1    92    1.9235E+01  5.0625E-03   1.9230E+01  0.000E+00  0.000E+00  0.000E+00  1.15882E+02  3.332E+00  5.799E+00  1.321E-03  4.340E-03  7.228E-04
   1    4   93     1    93    1.9230E+01  5.0614E-03   1.9225E+01  0.000E+00  0.000E+00  0.000E+00  1.15582E+02  3.332E+00  5.799E+00  1.321E-03  4.339E-03  7.223E-04
   1    4   94     1    94    1.9225E+01  5.0603E-03   1.9219E+01  0.000E+00  0.000E+00  0.000E+00  1.15281E+02  3.331E+00  5.798E+00  1.321E-03  4.338E-03  7.225E-04
   1    4   95     1    95    1.9219E+01  5.0592E-03   1.9214E+01  0.000E+00  0.000E+00  0.000E+00  1.14981E+02  3.331E+00  5.798E+00  1.321E-03  4.336E-03  7.234E-04
   1    4   96     1    96    1.9214E+01  5.0581E-03   1.9209E+01  0.000E+00  0.000E+00  0.000E+00  1.14681E+02  3.331E+00  5.797E+00  1.320E-03  4.333E-03  7.252E-04
   1    4   97     1    97    1.9209E+01  5.0570E-03   1.9204E+01  0.000E+00  0.000E+00  0.000E+00  1.14380E+02  3.330E+00  5.797E+00  1.320E-03  4.329E-03  7.281E-04
   1    4   98     1    98    1.9204E+01  5.0559E-03   1.9199E+01  0.000E+00  0.000E+00  0.000E+00  1.14080E+02  3.330E+00  5.796E+00  1.320E-03  4.313E-03  7.429E-04
   1    4   99     1    99    1.9199E+01  5.0548E-03   1.9194E+01  0.000E+00  0.000E+00  0.000E+00  1.13779E+02  3.329E+00  5.796E+00  1.320E-03  4.307E-03  7.474E-04
   1    4  100     1   100    1.9194E+01  5.0537E-03   1.9189E+01  0.000E+00  0.000E+00  0.000E+00  1.13479E+02  3.329E+00  5.795E+00  1.320E-03  4.301E-03  7.523E-04



1
  VOLUMETRIC BUDGET FOR UNSATURATED ZONE BENEATH STREAMS AT END OF TIME STEP    30 STRESS PERIOD  41
  ------------------------------------------------------------------------------------------------

    CUMULATIVE VOLUMES             L**3    RATES FOR THIS TIME STEP         L**3/T
    ------------------                     ------------------------


          STREAM LOSS =     32525420.0000            STREAM LOSS =            0.5109
    CHANGE IN STORAGE =      2077979.5000      CHANGE IN STORAGE =            0.1798
       RECHARGE TO GW =     30454620.0000         RECHARGE TO GW =            0.3310

             TOTAL IN =     32525420.0000               TOTAL IN =            0.5109

            TOTAL OUT =     32532600.0000              TOTAL OUT =            0.5109

             IN - OUT =        -7180.0000               IN - OUT =        1.1921E-07

  PERCENT DISCREPANCY =           -0.01      PERCENT DISCREPANCY =             0.00



1
  VOLUMETRIC BUDGET FOR ENTIRE MODEL AT END OF TIME STEP   30, STRESS PERIOD  41
  ------------------------------------------------------------------------------

     CUMULATIVE VOLUMES      L**3       RATES FOR THIS TIME STEP      L**3/T
     ------------------                 ------------------------

           IN:                                      IN:
           ---                                      ---
             STORAGE     =   112628176.0000               STORAGE     =           0.1713
       CONSTANT HEAD     =           0.0000         CONSTANT HEAD     =           0.0000
               WELLS     =           0.0000                 WELLS     =           0.0000
     HEAD DEP BOUNDS     =     2161875.0000       HEAD DEP BOUNDS     =       7.7902E-02
      STREAM LEAKAGE     =    30454104.0000        STREAM LEAKAGE     =           0.3310

                TOTAL IN =   145244160.0000                  TOTAL IN =           0.5802

          OUT:                                     OUT:
          ----                                     ----
             STORAGE     =     3055053.7500               STORAGE     =       2.7133E-02
       CONSTANT HEAD     =           0.0000         CONSTANT HEAD     =           0.0000
               WELLS     =   125829760.0000                 WELLS     =           0.5531
     HEAD DEP BOUNDS     =    16359348.0000       HEAD DEP BOUNDS     =           0.0000
      STREAM LEAKAGE     =           0.0000        STREAM LEAKAGE     =           0.0000

               TOTAL OUT =   145244160.0000                 TOTAL OUT =           0.5802

                IN - OUT =           0.0000                  IN - OUT =           0.0000

     PERCENT DISCREPANCY =           0.00         PERCENT DISCREPANCY =           0.00






         TIME SUMMARY AT END OF TIME STEP   30 IN STRESS PERIOD   41
                    SECONDS     MINUTES      HOURS       DAYS        YEARS
                    -----------------------------------------------------------
   TIME STEP LENGTH 2.49961E+05  4166.0      69.434      2.8931     7.92080E-03
 STRESS PERIOD TIME 2.59200E+06  43200.      720.00      30.000     8.21355E-02
         TOTAL TIME 1.06272E+08 1.77120E+06  29520.      1230.0      3.3676    
1
1
                            STRESS PERIOD NO.   42, LENGTH =   2592000.    
                            -----------------------------------------------

                              NUMBER OF TIME STEPS =    30

                               MULTIPLIER FOR DELT =     1.100

                            INITIAL TIME STEP SIZE =   15757.40    

 REUSING NON-PARAMETER WELLS FROM LAST STRESS PERIOD

      1 WELL 

 REUSING NON-PARAMETER GHB CELLS FROM LAST STRESS PERIOD

      7 GHB CELLS



 CLASSIFICATION & COUNT OF STREAM SEGMENTS BASED ON SOURCE OF INFLOW:

                HEADWATER     DIVERSION     RECEIVES TRIBUTARY FLOW
                ---------     ---------     -----------------------
                     1              0               0



                    INPUT DATA FOR EACH STREAM SEGMENT
 ---------------------------------------------------------------------------------------------

 SEGMENT    SEG.     INFLOW   OVERLAND   STREAM    STREAM   ICALC  OUTFLOW  DIVERSION PRIORITY
    NO.    LENGTH     RATE     RUNOFF      ET       PPT.    METH.  TO SEG.  FROM SEG.    NO.

      1  2.000E+04 9.110E+00 0.000E+00 0.000E+00 0.000E+00    2        0        0        0


         STREAMBED PROPERTIES AND STREAM DIMENSIONS

 SEGMENT     BED HYD. COND.      BED THICKNESS     ELEV.-TOP OF BED     WIDTH OF STREAM     DEPTH OF STREAM    STREAM ROUGHNESS
    No.     UPPER     LOWER     UPPER     LOWER     UPPER     LOWER     UPPER     LOWER     UPPER     LOWER   CHANNEL      BANK

     1  3.500E-07 3.500E-07                                                                                 3.000E-02 4.000E-02

  EIGHT POINT CROSS-SECTION DATA FOR SEGMENTS WITH ICALC = 2
    X VALUES X VALUES START FROM LEFT SIDE LOOKING DOWNSTREAM

     SEGMENT NO.        X1        X2        X3        X4        X5        X6        X7        X8
            1      0.000E+00 2.000E+00 4.000E+00 6.000E+00 8.000E+00 1.000E+01 1.200E+01 1.400E+01

    Z VALUES ARE RELATIVE TO STREAMBED ELEVATION

     SEGMENT NO.          Z1        Z2        Z3        Z4        Z5        Z6        Z7        Z8
            1      6.000E+00 4.500E+00 3.500E+00 0.000E+00 3.000E-01 3.500E+00 4.500E+00 6.000E+00



 
 SOLVING FOR HEAD 
                                                   Max.-Head-Change                         Max.-Flux-Residual
  Residual-Control   Outer-Iter.   Inner-Iter.     Column Row Layer    Maximum-Head-Change  Column Row Layer    Maximum-Flux-Residual          L2-NORM 
          0                 1           2            56    4     1       0.9233519381E-02      50    3    1         0.1303871391E+00      0.1633920644E+00
          0                 2           2             1    1     1       0.2993922775E-03      55    5    1        -0.1836512252E-01      0.2571333449E-01
          0                 3           1             1    1     1      -0.2659072590E-04      50    3    1         0.1758952913E-02      0.2380140424E-02
          0                 4           1             1    1     1       0.2106360619E-05      50    3    1        -0.1398847516E-03      0.1903333453E-03
          0                 5           1             1    1     1      -0.1466091985E-06      50    3    1         0.9840224413E-05      0.1338250809E-04

    ------------------------------------------------
       NWT REQUIRED            5 OUTER ITERATIONS 
       AND A TOTAL OF          7 INNER ITERATIONS.
    ------------------------------------------------

 NO OUTPUT CONTROL FOR STRESS PERIOD   42   TIME STEP    1
 
 WELLS WITH REDUCED PUMPING FOR STRESS PERIOD    42 TIME STEP     1
   LAY   ROW   COL         APPL.Q          ACT.Q        GW-HEAD       CELL-BOT
     1     3    50  -0.540089E+00  -0.315776E+00   0.623495E-03   0.000000E+00
     1     5    55  -0.540089E+00  -0.237267E+00   0.509992E-03   0.000000E+00
 
 
 SOLVING FOR HEAD 
                                                   Max.-Head-Change                         Max.-Flux-Residual
  Residual-Control   Outer-Iter.   Inner-Iter.     Column Row Layer    Maximum-Head-Change  Column Row Layer    Maximum-Flux-Residual          L2-NORM 
          0                 1           2            56    4     1       0.7029770651E-02      56    4    1         0.1234340878E-02      0.9024402482E-02
          0                 2           2            22    7     1       0.3131654839E-03       1    1    1         0.6327964204E-04      0.8737085410E-03
          0                 3           1            22    7     1      -0.2766635132E-04       1    1    1        -0.5695182562E-05      0.8060728438E-04
          0                 4           1            22    7     1       0.2183281054E-05       1    1    1         0.4561841145E-06      0.6587082446E-05
          0                 5           1            22    7     1      -0.1515919788E-06       1    7    1        -0.3206930854E-07      0.4678422201E-06

    ------------------------------------------------
       NWT REQUIRED            5 OUTER ITERATIONS 
       AND A TOTAL OF          7 INNER ITERATIONS.
    ------------------------------------------------

 NO OUTPUT CONTROL FOR STRESS PERIOD   42   TIME STEP    2
 
 WELLS WITH REDUCED PUMPING FOR STRESS PERIOD    42 TIME STEP     2
   LAY   ROW   COL         APPL.Q          ACT.Q        GW-HEAD       CELL-BOT
     1     3    50  -0.540089E+00  -0.315809E+00   0.623542E-03   0.000000E+00
     1     5    55  -0.540089E+00  -0.237296E+00   0.510031E-03   0.000000E+00
 
 
 SOLVING FOR HEAD 
                                                   Max.-Head-Change                         Max.-Flux-Residual
  Residual-Control   Outer-Iter.   Inner-Iter.     Column Row Layer    Maximum-Head-Change  Column Row Layer    Maximum-Flux-Residual          L2-NORM 
          0                 1           2            56    4     1       0.5474894575E-02      56    4    1         0.8525207398E-03      0.8775755748E-02
          0                 2           2            23    7     1       0.3395072700E-03      22    4    1        -0.6832745936E-04      0.8546324488E-03
          0                 3           1            23    7     1      -0.2995732806E-04      22    4    1         0.6196158207E-05      0.7910168132E-04
          0                 4           1            23    7     1       0.2361879064E-05      22    4    1        -0.4899885546E-06      0.6491087520E-05
          0                 5           1            23    7     1      -0.1638853911E-06      22    4    1         0.3377022040E-07      0.4623791392E-06

    ------------------------------------------------
       NWT REQUIRED            5 OUTER ITERATIONS 
       AND A TOTAL OF          7 INNER ITERATIONS.
    ------------------------------------------------

 NO OUTPUT CONTROL FOR STRESS PERIOD   42   TIME STEP    3
 
 WELLS WITH REDUCED PUMPING FOR STRESS PERIOD    42 TIME STEP     3
   LAY   ROW   COL         APPL.Q          ACT.Q        GW-HEAD       CELL-BOT
     1     3    50  -0.539930E+00  -0.315828E+00   0.623698E-03   0.000000E+00
     1     5    55  -0.539930E+00  -0.237318E+00   0.510158E-03   0.000000E+00
 
 
 SOLVING FOR HEAD 
                                                   Max.-Head-Change                         Max.-Flux-Residual
  Residual-Control   Outer-Iter.   Inner-Iter.     Column Row Layer    Maximum-Head-Change  Column Row Layer    Maximum-Flux-Residual          L2-NORM 
          0                 1           2            56    4     1       0.4401463050E-02      56    4    1         0.6023186703E-03      0.8634889934E-02
          0                 2           2            24    7     1       0.3667060349E-03      23    7    1         0.5984753625E-04      0.8423772537E-03
          0                 3           1            24    7     1      -0.3226498873E-04      23    7    1        -0.5386294320E-05      0.7824225370E-04
          0                 4           1            24    7     1       0.2539453846E-05      23    4    1        -0.4415599939E-06      0.6449276417E-05
          0                 5           1            24    7     1      -0.1760375639E-06      23    4    1         0.3297958173E-07      0.4609039677E-06

    ------------------------------------------------
       NWT REQUIRED            5 OUTER ITERATIONS 
       AND A TOTAL OF          7 INNER ITERATIONS.
    ------------------------------------------------

 NO OUTPUT CONTROL FOR STRESS PERIOD   42   TIME STEP    4
 
 WELLS WITH REDUCED PUMPING FOR STRESS PERIOD    42 TIME STEP     4
   LAY   ROW   COL         APPL.Q          ACT.Q        GW-HEAD       CELL-BOT
     1     3    50  -0.540075E+00  -0.315848E+00   0.623609E-03   0.000000E+00
     1     5    55  -0.540075E+00  -0.237343E+00   0.510106E-03   0.000000E+00
 
 
 SOLVING FOR HEAD 
                                                   Max.-Head-Change                         Max.-Flux-Residual
  Residual-Control   Outer-Iter.   Inner-Iter.     Column Row Layer    Maximum-Head-Change  Column Row Layer    Maximum-Flux-Residual          L2-NORM 
          0                 1           2            25    7     1      -0.4090212033E-02      78    4    1         0.7386850297E-03      0.8579585776E-02
          0                 2           2            25    7     1       0.3953163166E-03      23    4    1        -0.6369187621E-04      0.8360868323E-03
          0                 3           1            24    7     1      -0.3468911594E-04      23    4    1         0.6049971811E-05      0.7779207711E-04
          0                 4           1            24    7     1       0.2728337512E-05      23    4    1        -0.4881494569E-06      0.6436468374E-05
          0                 5           1            24    7     1      -0.1889996294E-06      23    4    1         0.3399257231E-07      0.4615627987E-06

    ------------------------------------------------
       NWT REQUIRED            5 OUTER ITERATIONS 
       AND A TOTAL OF          7 INNER ITERATIONS.
    ------------------------------------------------

 NO OUTPUT CONTROL FOR STRESS PERIOD   42   TIME STEP    5
 
 WELLS WITH REDUCED PUMPING FOR STRESS PERIOD    42 TIME STEP     5
   LAY   ROW   COL         APPL.Q          ACT.Q        GW-HEAD       CELL-BOT
     1     3    50  -0.540037E+00  -0.315869E+00   0.623668E-03   0.000000E+00
     1     5    55  -0.540037E+00  -0.237370E+00   0.510165E-03   0.000000E+00
 
 
 SOLVING FOR HEAD 
                                                   Max.-Head-Change                         Max.-Flux-Residual
  Residual-Control   Outer-Iter.   Inner-Iter.     Column Row Layer    Maximum-Head-Change  Column Row Layer    Maximum-Flux-Residual          L2-NORM 
          0                 1           2            53    4     1       0.1314039804E-01      53    4    1         0.1561054847E-02      0.8819989200E-02
          0                 2           2            25    7     1       0.4260715535E-03      24    4    1        -0.8117159721E-04      0.8313360989E-03
          0                 3           1            25    7     1      -0.3740522148E-04      24    4    1         0.7300267821E-05      0.7751034248E-04
          0                 4           1            25    7     1       0.2939233988E-05      24    4    1        -0.5761635329E-06      0.6438013783E-05
          0                 5           1            25    7     1      -0.2035365205E-06      24    4    1         0.3963604200E-07      0.4632686325E-06

    ------------------------------------------------
       NWT REQUIRED            5 OUTER ITERATIONS 
       AND A TOTAL OF          7 INNER ITERATIONS.
    ------------------------------------------------

 NO OUTPUT CONTROL FOR STRESS PERIOD   42   TIME STEP    6
 
 WELLS WITH REDUCED PUMPING FOR STRESS PERIOD    42 TIME STEP     6
   LAY   ROW   COL         APPL.Q          ACT.Q        GW-HEAD       CELL-BOT
     1     3    50  -0.539969E+00  -0.315893E+00   0.623758E-03   0.000000E+00
     1     5    55  -0.539969E+00  -0.237405E+00   0.510254E-03   0.000000E+00
 
 
 SOLVING FOR HEAD 
                                                   Max.-Head-Change                         Max.-Flux-Residual
  Residual-Control   Outer-Iter.   Inner-Iter.     Column Row Layer    Maximum-Head-Change  Column Row Layer    Maximum-Flux-Residual          L2-NORM 
          0                 1           2            51    4     1       0.1699890295E-01      51    4    1         0.1922805413E-02      0.9182056156E-02
          0                 2           2            26    7     1       0.4580652248E-03      77    4    1        -0.6488286443E-04      0.8256607243E-03
          0                 3           1            26    7     1      -0.4008945777E-04      25    4    1         0.6385834304E-05      0.7698375758E-04
          0                 4           1            26    7     1       0.3143338272E-05      25    4    1        -0.5436199295E-06      0.6418129806E-05
          0                 5           1            26    7     1      -0.2173557594E-06      25    4    1         0.3884316158E-07      0.4635064973E-06

    ------------------------------------------------
       NWT REQUIRED            5 OUTER ITERATIONS 
       AND A TOTAL OF          7 INNER ITERATIONS.
    ------------------------------------------------

 NO OUTPUT CONTROL FOR STRESS PERIOD   42   TIME STEP    7
 
 WELLS WITH REDUCED PUMPING FOR STRESS PERIOD    42 TIME STEP     7
   LAY   ROW   COL         APPL.Q          ACT.Q        GW-HEAD       CELL-BOT
     1     3    50  -0.539938E+00  -0.315937E+00   0.623845E-03   0.000000E+00
     1     5    55  -0.539938E+00  -0.237574E+00   0.510506E-03   0.000000E+00
 
 
 SOLVING FOR HEAD 
                                                   Max.-Head-Change                         Max.-Flux-Residual
  Residual-Control   Outer-Iter.   Inner-Iter.     Column Row Layer    Maximum-Head-Change  Column Row Layer    Maximum-Flux-Residual          L2-NORM 
          0                 1           2            55    4     1       0.1764770706E-01      55    4    1         0.1982162263E-02      0.9135877299E-02
          0                 2           2            27    7     1       0.4914039059E-03      50    4    1        -0.5627185956E-04      0.8226637796E-03
          0                 3           1            27    7     1      -0.4287121703E-04      26    4    1         0.5478268191E-05      0.7686130948E-04
          0                 4           1            27    7     1       0.3353607599E-05      26    4    1        -0.5131482190E-06      0.6435883103E-05
          0                 5           1            27    7     1      -0.2315246078E-06       4    4    1         0.3907987889E-07      0.4666095755E-06

    ------------------------------------------------
       NWT REQUIRED            5 OUTER ITERATIONS 
       AND A TOTAL OF          7 INNER ITERATIONS.
    ------------------------------------------------

 NO OUTPUT CONTROL FOR STRESS PERIOD   42   TIME STEP    8
 
 WELLS WITH REDUCED PUMPING FOR STRESS PERIOD    42 TIME STEP     8
   LAY   ROW   COL         APPL.Q          ACT.Q        GW-HEAD       CELL-BOT
     1     3    50  -0.539952E+00  -0.316468E+00   0.624577E-03   0.000000E+00
     1     5    55  -0.539952E+00  -0.238081E+00   0.511197E-03   0.000000E+00
 
 
 SOLVING FOR HEAD 
                                                   Max.-Head-Change                         Max.-Flux-Residual
  Residual-Control   Outer-Iter.   Inner-Iter.     Column Row Layer    Maximum-Head-Change  Column Row Layer    Maximum-Flux-Residual          L2-NORM 
          0                 1           2            50    4     1       0.1229934291E-01      50    4    1         0.1335248264E-02      0.8767502850E-02
          0                 2           2             4    1     1       0.5292033616E-03      26    4    1        -0.6709322608E-04      0.8219661330E-03
          0                 3           1            28    7     1      -0.4574112609E-04      26    4    1         0.6642818573E-05      0.7700338747E-04
          0                 4           1            28    7     1       0.3569139920E-05      26    4    1        -0.5499600562E-06      0.6466749332E-05
          0                 5           1            28    7     1      -0.2459547893E-06       4    4    1         0.4076712301E-07      0.4704748150E-06

    ------------------------------------------------
       NWT REQUIRED            5 OUTER ITERATIONS 
       AND A TOTAL OF          7 INNER ITERATIONS.
    ------------------------------------------------

 NO OUTPUT CONTROL FOR STRESS PERIOD   42   TIME STEP    9
 
 WELLS WITH REDUCED PUMPING FOR STRESS PERIOD    42 TIME STEP     9
   LAY   ROW   COL         APPL.Q          ACT.Q        GW-HEAD       CELL-BOT
     1     3    50  -0.539978E+00  -0.316881E+00   0.625135E-03   0.000000E+00
     1     5    55  -0.539978E+00  -0.238439E+00   0.511676E-03   0.000000E+00
 
 
 SOLVING FOR HEAD 
                                                   Max.-Head-Change                         Max.-Flux-Residual
  Residual-Control   Outer-Iter.   Inner-Iter.     Column Row Layer    Maximum-Head-Change  Column Row Layer    Maximum-Flux-Residual          L2-NORM 
          0                 1           2            54    4     1       0.9101794408E-02      50    4    1         0.7549674181E-03      0.8496613068E-02
          0                 2           2             4    1     1       0.5789410470E-03      27    4    1        -0.8153858504E-04      0.8166090256E-03
          0                 3           1             4    1     1      -0.4961293131E-04      27    4    1         0.7697120582E-05      0.7685453646E-04
          0                 4           1             4    1     1       0.3827014966E-05      27    4    1        -0.6200787031E-06      0.6480848545E-05
          0                 5           1             4    1     1      -0.2615499441E-06      27    4    1         0.4320216718E-07      0.4734315443E-06

    ------------------------------------------------
       NWT REQUIRED            5 OUTER ITERATIONS 
       AND A TOTAL OF          7 INNER ITERATIONS.
    ------------------------------------------------

 NO OUTPUT CONTROL FOR STRESS PERIOD   42   TIME STEP   10
 
 WELLS WITH REDUCED PUMPING FOR STRESS PERIOD    42 TIME STEP    10
   LAY   ROW   COL         APPL.Q          ACT.Q        GW-HEAD       CELL-BOT
     1     3    50  -0.539954E+00  -0.317162E+00   0.625548E-03   0.000000E+00
     1     5    55  -0.539954E+00  -0.238703E+00   0.512053E-03   0.000000E+00
 
 
 SOLVING FOR HEAD 
                                                   Max.-Head-Change                         Max.-Flux-Residual
  Residual-Control   Outer-Iter.   Inner-Iter.     Column Row Layer    Maximum-Head-Change  Column Row Layer    Maximum-Flux-Residual          L2-NORM 
          0                 1           2            54    4     1       0.7926436870E-02      75    4    1         0.1074552691E-02      0.8429692514E-02
          0                 2           2             4    1     1       0.6335790918E-03      28    4    1        -0.9272896707E-04      0.8145969648E-03
          0                 3           1             4    1     1      -0.5407292346E-04      28    4    1         0.8547435167E-05      0.7664405468E-04
          0                 4           1             4    1     1       0.4154727290E-05      28    4    1        -0.6823674958E-06      0.6479975951E-05
          0                 5           1             4    1     1      -0.2829850225E-06      28    4    1         0.4736353887E-07      0.4751761547E-06

    ------------------------------------------------
       NWT REQUIRED            5 OUTER ITERATIONS 
       AND A TOTAL OF          7 INNER ITERATIONS.
    ------------------------------------------------

 NO OUTPUT CONTROL FOR STRESS PERIOD   42   TIME STEP   11
 
 WELLS WITH REDUCED PUMPING FOR STRESS PERIOD    42 TIME STEP    11
   LAY   ROW   COL         APPL.Q          ACT.Q        GW-HEAD       CELL-BOT
     1     3    50  -0.540018E+00  -0.317366E+00   0.625782E-03   0.000000E+00
     1     5    55  -0.540018E+00  -0.238908E+00   0.512297E-03   0.000000E+00
 
 
 SOLVING FOR HEAD 
                                                   Max.-Head-Change                         Max.-Flux-Residual
  Residual-Control   Outer-Iter.   Inner-Iter.     Column Row Layer    Maximum-Head-Change  Column Row Layer    Maximum-Flux-Residual          L2-NORM 
          0                 1           2             4    1     1      -0.7436342025E-02      29    4    1         0.8134274570E-03      0.8273310615E-02
          0                 2           2             4    1     1       0.6934846073E-03      29    4    1        -0.9009750016E-04      0.8051758332E-03
          0                 3           1             4    1     1      -0.5893616083E-04      29    4    1         0.8471394679E-05      0.7607371195E-04
          0                 4           1             4    1     1       0.4509490615E-05      29    4    1        -0.6838182145E-06      0.6462072248E-05
          0                 5           1             4    1     1      -0.3060007593E-06      29    4    1         0.4773849938E-07      0.4760283350E-06

    ------------------------------------------------
       NWT REQUIRED            5 OUTER ITERATIONS 
       AND A TOTAL OF          7 INNER ITERATIONS.
    ------------------------------------------------

 NO OUTPUT CONTROL FOR STRESS PERIOD   42   TIME STEP   12
 
 WELLS WITH REDUCED PUMPING FOR STRESS PERIOD    42 TIME STEP    12
   LAY   ROW   COL         APPL.Q          ACT.Q        GW-HEAD       CELL-BOT
     1     3    50  -0.540027E+00  -0.317524E+00   0.625996E-03   0.000000E+00
     1     5    55  -0.540027E+00  -0.239076E+00   0.512524E-03   0.000000E+00
 
 
 SOLVING FOR HEAD 
                                                   Max.-Head-Change                         Max.-Flux-Residual
  Residual-Control   Outer-Iter.   Inner-Iter.     Column Row Layer    Maximum-Head-Change  Column Row Layer    Maximum-Flux-Residual          L2-NORM 
          0                 1           2             3    1     1      -0.8173010331E-02      30    4    1         0.7632260832E-03      0.8162793434E-02
          0                 2           2             3    1     1       0.7591401590E-03      30    4    1        -0.8674727723E-04      0.7965863510E-03
          0                 3           1             4    1     1      -0.6423493723E-04      30    4    1         0.8306258085E-05      0.7547268947E-04
          0                 4           1             4    1     1       0.4893176971E-05      30    4    1        -0.6799820333E-06      0.6438964898E-05
          0                 5           1             4    1     1      -0.3306766292E-06      30    4    1         0.4773685447E-07      0.4765000547E-06

    ------------------------------------------------
       NWT REQUIRED            5 OUTER ITERATIONS 
       AND A TOTAL OF          7 INNER ITERATIONS.
    ------------------------------------------------

 NO OUTPUT CONTROL FOR STRESS PERIOD   42   TIME STEP   13
 
 WELLS WITH REDUCED PUMPING FOR STRESS PERIOD    42 TIME STEP    13
   LAY   ROW   COL         APPL.Q          ACT.Q        GW-HEAD       CELL-BOT
     1     3    50  -0.540027E+00  -0.317656E+00   0.626181E-03   0.000000E+00
     1     5    55  -0.540027E+00  -0.239223E+00   0.512726E-03   0.000000E+00
 
 
 SOLVING FOR HEAD 
                                                   Max.-Head-Change                         Max.-Flux-Residual
  Residual-Control   Outer-Iter.   Inner-Iter.     Column Row Layer    Maximum-Head-Change  Column Row Layer    Maximum-Flux-Residual          L2-NORM 
          0                 1           2             3    1     1      -0.8983194269E-02      73    4    1         0.8447072782E-03      0.8094083391E-02
          0                 2           2             3    1     1       0.8311515795E-03      31    4    1        -0.8998626539E-04      0.7902972146E-03
          0                 3           1             3    1     1      -0.7001580330E-04      31    4    1         0.8497287697E-05      0.7500775754E-04
          0                 4           1             4    1     1       0.5307937491E-05      31    4    1        -0.6889476154E-06      0.6422816104E-05
          0                 5           1             4    1     1      -0.3571061536E-06       2    4    1         0.4858677372E-07      0.4773646902E-06

    ------------------------------------------------
       NWT REQUIRED            5 OUTER ITERATIONS 
       AND A TOTAL OF          7 INNER ITERATIONS.
    ------------------------------------------------

 NO OUTPUT CONTROL FOR STRESS PERIOD   42   TIME STEP   14
 
 WELLS WITH REDUCED PUMPING FOR STRESS PERIOD    42 TIME STEP    14
   LAY   ROW   COL         APPL.Q          ACT.Q        GW-HEAD       CELL-BOT
     1     3    50  -0.540011E+00  -0.317773E+00   0.626357E-03   0.000000E+00
     1     5    55  -0.540011E+00  -0.239358E+00   0.512921E-03   0.000000E+00
 
 
 SOLVING FOR HEAD 
                                                   Max.-Head-Change                         Max.-Flux-Residual
  Residual-Control   Outer-Iter.   Inner-Iter.     Column Row Layer    Maximum-Head-Change  Column Row Layer    Maximum-Flux-Residual          L2-NORM 
          0                 1           2             3    1     1      -0.9873532809E-02      72    4    1         0.1035729187E-02      0.8031332523E-02
          0                 2           2             3    1     1       0.9100239476E-03      32    4    1        -0.9343173792E-04      0.7840817117E-03
          0                 3           1             3    1     1      -0.7631872513E-04      32    4    1         0.8663881815E-05      0.7450022798E-04
          0                 4           1             3    1     1       0.5756659857E-05      32    4    1        -0.6957051362E-06      0.6400163267E-05
          0                 5           1             4    1     1      -0.3854029904E-06       2    4    1         0.5000778458E-07      0.4777100844E-06

    ------------------------------------------------
       NWT REQUIRED            5 OUTER ITERATIONS 
       AND A TOTAL OF          7 INNER ITERATIONS.
    ------------------------------------------------

 NO OUTPUT CONTROL FOR STRESS PERIOD   42   TIME STEP   15
 
 WELLS WITH REDUCED PUMPING FOR STRESS PERIOD    42 TIME STEP    15
   LAY   ROW   COL         APPL.Q          ACT.Q        GW-HEAD       CELL-BOT
     1     3    50  -0.540011E+00  -0.317879E+00   0.626507E-03   0.000000E+00
     1     5    55  -0.540011E+00  -0.239485E+00   0.513097E-03   0.000000E+00
 
 
 SOLVING FOR HEAD 
                                                   Max.-Head-Change                         Max.-Flux-Residual
  Residual-Control   Outer-Iter.   Inner-Iter.     Column Row Layer    Maximum-Head-Change  Column Row Layer    Maximum-Flux-Residual          L2-NORM 
          0                 1           2             2    1     1      -0.1085340247E-01      71    4    1         0.1076108898E-02      0.7936361056E-02
          0                 2           2             2    1     1       0.9965079476E-03      33    4    1        -0.8259963991E-04      0.7752283373E-03
          0                 3           1             2    1     1      -0.8319058133E-04      33    4    1         0.7828654747E-05      0.7382084158E-04
          0                 4           1             1    1     1       0.6242816634E-05      33    4    1        -0.6377483377E-06      0.6366362259E-05
          0                 5           1             1    1     1      -0.4158477044E-06       2    4    1         0.5136788772E-07      0.4772980808E-06

    ------------------------------------------------
       NWT REQUIRED            5 OUTER ITERATIONS 
       AND A TOTAL OF          7 INNER ITERATIONS.
    ------------------------------------------------

 NO OUTPUT CONTROL FOR STRESS PERIOD   42   TIME STEP   16
 
 WELLS WITH REDUCED PUMPING FOR STRESS PERIOD    42 TIME STEP    16
   LAY   ROW   COL         APPL.Q          ACT.Q        GW-HEAD       CELL-BOT
     1     3    50  -0.540011E+00  -0.317980E+00   0.626648E-03   0.000000E+00
     1     5    55  -0.540011E+00  -0.239609E+00   0.513268E-03   0.000000E+00
 
 
 SOLVING FOR HEAD 
                                                   Max.-Head-Change                         Max.-Flux-Residual
  Residual-Control   Outer-Iter.   Inner-Iter.     Column Row Layer    Maximum-Head-Change  Column Row Layer    Maximum-Flux-Residual          L2-NORM 
          0                 1           2             1    1     1      -0.1193085834E-01      70    4    1         0.1016173588E-02      0.7848310878E-02
          0                 2           2             1    1     1       0.1091366406E-02      70    4    1        -0.7739750304E-04      0.7674227609E-03
          0                 3           1             1    1     1      -0.9070132036E-04      34    4    1         0.6806970818E-05      0.7324064142E-04
          0                 4           1             1    1     1       0.6769748456E-05       2    4    1        -0.5841369912E-06      0.6338945206E-05
          0                 5           1             1    1     1      -0.4484409437E-06       2    4    1         0.5266298686E-07      0.4772527983E-06

    ------------------------------------------------
       NWT REQUIRED            5 OUTER ITERATIONS 
       AND A TOTAL OF          7 INNER ITERATIONS.
    ------------------------------------------------

 NO OUTPUT CONTROL FOR STRESS PERIOD   42   TIME STEP   17
 
 WELLS WITH REDUCED PUMPING FOR STRESS PERIOD    42 TIME STEP    17
   LAY   ROW   COL         APPL.Q          ACT.Q        GW-HEAD       CELL-BOT
     1     3    50  -0.540023E+00  -0.318078E+00   0.626775E-03   0.000000E+00
     1     5    55  -0.540023E+00  -0.239733E+00   0.513431E-03   0.000000E+00
 
 
 SOLVING FOR HEAD 
                                                   Max.-Head-Change                         Max.-Flux-Residual
  Residual-Control   Outer-Iter.   Inner-Iter.     Column Row Layer    Maximum-Head-Change  Column Row Layer    Maximum-Flux-Residual          L2-NORM 
          0                 1           2             1    1     1      -0.1311449566E-01      69    4    1         0.1020495619E-02      0.7853276470E-02
          0                 2           2             1    1     1       0.1195342841E-02      69    4    1        -0.7852262379E-04      0.7679253330E-03
          0                 3           1             1    1     1      -0.9889895983E-04      36    4    1         0.6950129454E-05      0.7321550197E-04
          0                 4           1             1    1     1       0.7339158674E-05       2    4    1        -0.5941657797E-06      0.6339397837E-05
          0                 5           1             1    1     1      -0.4832571337E-06       2    4    1         0.5388796964E-07      0.4782807347E-06

    ------------------------------------------------
       NWT REQUIRED            5 OUTER ITERATIONS 
       AND A TOTAL OF          7 INNER ITERATIONS.
    ------------------------------------------------

 NO OUTPUT CONTROL FOR STRESS PERIOD   42   TIME STEP   18
 
 WELLS WITH REDUCED PUMPING FOR STRESS PERIOD    42 TIME STEP    18
   LAY   ROW   COL         APPL.Q          ACT.Q        GW-HEAD       CELL-BOT
     1     3    50  -0.540018E+00  -0.318173E+00   0.626914E-03   0.000000E+00
     1     5    55  -0.540018E+00  -0.239859E+00   0.513608E-03   0.000000E+00
 
 
 SOLVING FOR HEAD 
                                                   Max.-Head-Change                         Max.-Flux-Residual
  Residual-Control   Outer-Iter.   Inner-Iter.     Column Row Layer    Maximum-Head-Change  Column Row Layer    Maximum-Flux-Residual          L2-NORM 
          0                 1           2             1    1     1      -0.1441433186E-01      68    4    1         0.1080379706E-02      0.7812235455E-02
          0                 2           2             1    1     1       0.1309263186E-02      37    4    1        -0.8760319749E-04      0.7638804104E-03
          0                 3           2             1    1     1      -0.1078700872E-03      37    4    1         0.7957276346E-05      0.7275201129E-04
          0                 4           1             1    1     1       0.7981303938E-05      37    4    1        -0.6359673383E-06      0.6319991264E-05
          0                 5           1             1    1     1      -0.5220330485E-06       2    4    1         0.5515773083E-07      0.4777777048E-06

    ------------------------------------------------
       NWT REQUIRED            5 OUTER ITERATIONS 
       AND A TOTAL OF          8 INNER ITERATIONS.
    ------------------------------------------------

 NO OUTPUT CONTROL FOR STRESS PERIOD   42   TIME STEP   19
 
 WELLS WITH REDUCED PUMPING FOR STRESS PERIOD    42 TIME STEP    19
   LAY   ROW   COL         APPL.Q          ACT.Q        GW-HEAD       CELL-BOT
     1     3    50  -0.539988E+00  -0.318268E+00   0.627072E-03   0.000000E+00
     1     5    55  -0.539988E+00  -0.239987E+00   0.513803E-03   0.000000E+00
 
 
 SOLVING FOR HEAD 
                                                   Max.-Head-Change                         Max.-Flux-Residual
  Residual-Control   Outer-Iter.   Inner-Iter.     Column Row Layer    Maximum-Head-Change  Column Row Layer    Maximum-Flux-Residual          L2-NORM 
          0                 1           2             3    1     1      -0.1589809336E-01      67    4    1         0.1078700984E-02      0.7683703093E-02
          0                 2           2             3    1     1       0.1439658446E-02      38    4    1        -0.8892645340E-04      0.7488726097E-03
          0                 3           2             3    1     1      -0.1181139349E-03      38    4    1         0.7829436636E-05      0.7124325018E-04
          0                 4           1             3    1     1       0.8691999466E-05      38    4    1        -0.6067252611E-06      0.6202780581E-05
          0                 5           1             1    1     1      -0.5639099771E-06       2    4    1         0.5574747064E-07      0.4702646421E-06

    ------------------------------------------------
       NWT REQUIRED            5 OUTER ITERATIONS 
       AND A TOTAL OF          8 INNER ITERATIONS.
    ------------------------------------------------

 NO OUTPUT CONTROL FOR STRESS PERIOD   42   TIME STEP   20
 
 WELLS WITH REDUCED PUMPING FOR STRESS PERIOD    42 TIME STEP    20
   LAY   ROW   COL         APPL.Q          ACT.Q        GW-HEAD       CELL-BOT
     1     3    50  -0.539984E+00  -0.318363E+00   0.627209E-03   0.000000E+00
     1     5    55  -0.539984E+00  -0.240120E+00   0.513988E-03   0.000000E+00
 
 
 SOLVING FOR HEAD 
                                                   Max.-Head-Change                         Max.-Flux-Residual
  Residual-Control   Outer-Iter.   Inner-Iter.     Column Row Layer    Maximum-Head-Change  Column Row Layer    Maximum-Flux-Residual          L2-NORM 
          0                 1           2             6    4     1      -0.2136787373E-01      66    4    1         0.9623487429E-03      0.8149718646E-02
          0                 2           2             5    1     1       0.1712833413E-02      66    4    1        -0.7282980625E-04      0.7388718997E-03
          0                 3           2             5    1     1      -0.1387478554E-03      39    4    1         0.6290808050E-05      0.6735840772E-04
          0                 4           1             5    1     1       0.1005744207E-04      39    4    1        -0.5017651974E-06      0.5823845501E-05
          0                 5           1             4    1     1      -0.6400327270E-06       1    4    1         0.4882815219E-07      0.4454570931E-06

    ------------------------------------------------
       NWT REQUIRED            5 OUTER ITERATIONS 
       AND A TOTAL OF          8 INNER ITERATIONS.
    ------------------------------------------------

 NO OUTPUT CONTROL FOR STRESS PERIOD   42   TIME STEP   21
 
 WELLS WITH REDUCED PUMPING FOR STRESS PERIOD    42 TIME STEP    21
   LAY   ROW   COL         APPL.Q          ACT.Q        GW-HEAD       CELL-BOT
     1     3    50  -0.540000E+00  -0.318458E+00   0.627328E-03   0.000000E+00
     1     5    55  -0.540000E+00  -0.240257E+00   0.514168E-03   0.000000E+00
 
 
 SOLVING FOR HEAD 
                                                   Max.-Head-Change                         Max.-Flux-Residual
  Residual-Control   Outer-Iter.   Inner-Iter.     Column Row Layer    Maximum-Head-Change  Column Row Layer    Maximum-Flux-Residual          L2-NORM 
          0                 1           2             2    4     1      -0.2652070571E-01       1    4    1        -0.9500625386E-03      0.9126928531E-02
          0                 2           2             5    2     1       0.2122046828E-02      41    4    1        -0.7301291078E-04      0.7941663262E-03
          0                 3           2             5    1     1      -0.1711698806E-03      41    4    1         0.6334625899E-05      0.7009503600E-04
          0                 4           1             5    1     1       0.1235272231E-04      41    4    1        -0.4860825493E-06      0.6016751348E-05
          0                 5           1             4    1     1      -0.7790866753E-06       6    4    1         0.5226240418E-07      0.4631964147E-06

    ------------------------------------------------
       NWT REQUIRED            5 OUTER ITERATIONS 
       AND A TOTAL OF          8 INNER ITERATIONS.
    ------------------------------------------------

 NO OUTPUT CONTROL FOR STRESS PERIOD   42   TIME STEP   22
 
 WELLS WITH REDUCED PUMPING FOR STRESS PERIOD    42 TIME STEP    22
   LAY   ROW   COL         APPL.Q          ACT.Q        GW-HEAD       CELL-BOT
     1     3    50  -0.539996E+00  -0.318552E+00   0.627463E-03   0.000000E+00
     1     5    55  -0.539996E+00  -0.240401E+00   0.514368E-03   0.000000E+00
 
 
 SOLVING FOR HEAD 
                                                   Max.-Head-Change                         Max.-Flux-Residual
  Residual-Control   Outer-Iter.   Inner-Iter.     Column Row Layer    Maximum-Head-Change  Column Row Layer    Maximum-Flux-Residual          L2-NORM 
          0                 1           2             1    4     1      -0.2928970261E-01      42    4    1         0.1022649882E-02      0.9692269909E-02
          0                 2           2             1    1     1       0.2503040223E-02      42    4    1        -0.9190033841E-04      0.8714397563E-03
          0                 3           2             1    1     1      -0.2030249120E-03      42    4    1         0.7402285108E-05      0.7904247426E-04
          0                 4           1             1    1     1       0.1469127793E-04       6    4    1        -0.6567242252E-06      0.6870067334E-05
          0                 5           1             1    1     1      -0.9247264142E-06       6    4    1         0.6612672721E-07      0.5291153656E-06

    ------------------------------------------------
       NWT REQUIRED            5 OUTER ITERATIONS 
       AND A TOTAL OF          8 INNER ITERATIONS.
    ------------------------------------------------

 NO OUTPUT CONTROL FOR STRESS PERIOD   42   TIME STEP   23
 
 WELLS WITH REDUCED PUMPING FOR STRESS PERIOD    42 TIME STEP    23
   LAY   ROW   COL         APPL.Q          ACT.Q        GW-HEAD       CELL-BOT
     1     3    50  -0.540010E+00  -0.318645E+00   0.627583E-03   0.000000E+00
     1     5    55  -0.540010E+00  -0.240550E+00   0.514565E-03   0.000000E+00
 
 
 SOLVING FOR HEAD 
                                                   Max.-Head-Change                         Max.-Flux-Residual
  Residual-Control   Outer-Iter.   Inner-Iter.     Column Row Layer    Maximum-Head-Change  Column Row Layer    Maximum-Flux-Residual          L2-NORM 
          0                 1           2             1    4     1      -0.3217046447E-01      62    4    1         0.1034439452E-02      0.1010082761E-01
          0                 2           2             1    1     1       0.2849569389E-02      43    4    1        -0.7842791044E-04      0.9327775530E-03
          0                 3           2             1    1     1      -0.2313498989E-03       1    3    1        -0.6678752232E-05      0.8616269751E-04
          0                 4           1             1    1     1       0.1673519254E-04       1    4    1        -0.7324288482E-06      0.7537452650E-05
          0                 5           1             1    1     1      -0.1046380896E-05       2    4    1         0.7212015163E-07      0.5788634811E-06
          0                 6           1             1    1     1       0.5685574056E-07       2    4    1        -0.5399837022E-08      0.3797658422E-07

    ------------------------------------------------
       NWT REQUIRED            6 OUTER ITERATIONS 
       AND A TOTAL OF          9 INNER ITERATIONS.
    ------------------------------------------------

 NO OUTPUT CONTROL FOR STRESS PERIOD   42   TIME STEP   24
 
 WELLS WITH REDUCED PUMPING FOR STRESS PERIOD    42 TIME STEP    24
   LAY   ROW   COL         APPL.Q          ACT.Q        GW-HEAD       CELL-BOT
     1     3    50  -0.539998E+00  -0.318737E+00   0.627721E-03   0.000000E+00
     1     5    55  -0.539998E+00  -0.240705E+00   0.514786E-03   0.000000E+00
 
 
 SOLVING FOR HEAD 
                                                   Max.-Head-Change                         Max.-Flux-Residual
  Residual-Control   Outer-Iter.   Inner-Iter.     Column Row Layer    Maximum-Head-Change  Column Row Layer    Maximum-Flux-Residual          L2-NORM 
          0                 1           2             1    4     1      -0.3581993893E-01      61    4    1         0.9925303930E-03      0.1039994056E-01
          0                 2           2             1    1     1       0.3197986296E-02       1    5    1         0.7512366165E-04      0.9741071140E-03
          0                 3           2             1    1     1      -0.2592880856E-03       1    5    1        -0.6761479833E-05      0.9071968844E-04
          0                 4           1             1    1     1       0.1870246502E-04       1    4    1        -0.7563813220E-06      0.7958486847E-05
          0                 5           1             1    1     1      -0.1156486446E-05       2    4    1         0.7443926719E-07      0.6090451756E-06
          0                 6           1             1    1     1       0.6215415742E-07       2    4    1        -0.5574179340E-08      0.3983804974E-07

    ------------------------------------------------
       NWT REQUIRED            6 OUTER ITERATIONS 
       AND A TOTAL OF          9 INNER ITERATIONS.
    ------------------------------------------------

 NO OUTPUT CONTROL FOR STRESS PERIOD   42   TIME STEP   25
 
 WELLS WITH REDUCED PUMPING FOR STRESS PERIOD    42 TIME STEP    25
   LAY   ROW   COL         APPL.Q          ACT.Q        GW-HEAD       CELL-BOT
     1     3    50  -0.540006E+00  -0.318826E+00   0.627839E-03   0.000000E+00
     1     5    55  -0.540006E+00  -0.240866E+00   0.515003E-03   0.000000E+00
 
 
 SOLVING FOR HEAD 
                                                   Max.-Head-Change                         Max.-Flux-Residual
  Residual-Control   Outer-Iter.   Inner-Iter.     Column Row Layer    Maximum-Head-Change  Column Row Layer    Maximum-Flux-Residual          L2-NORM 
          0                 1           2             1    4     1      -0.3976130428E-01       1    5    1        -0.7621730648E-03      0.1054208730E-01
          0                 2           2             1    1     1       0.3566094058E-02       1    5    1         0.7621698806E-04      0.9990459774E-03
          0                 3           2             1    1     1      -0.2887538083E-03       1    5    1        -0.6859925842E-05      0.9373131781E-04
          0                 4           1             1    1     1       0.2076721796E-04       1    4    1        -0.7746322517E-06      0.8251531376E-05
          0                 5           1             1    1     1      -0.1268076707E-05       2    4    1         0.7625968834E-07      0.6294485591E-06
          0                 6           1             1    1     1       0.6734105115E-07       2    4    1        -0.5710546702E-08      0.4107152036E-07

    ------------------------------------------------
       NWT REQUIRED            6 OUTER ITERATIONS 
       AND A TOTAL OF          9 INNER ITERATIONS.
    ------------------------------------------------

 NO OUTPUT CONTROL FOR STRESS PERIOD   42   TIME STEP   26
 
 WELLS WITH REDUCED PUMPING FOR STRESS PERIOD    42 TIME STEP    26
   LAY   ROW   COL         APPL.Q          ACT.Q        GW-HEAD       CELL-BOT
     1     3    50  -0.540003E+00  -0.318913E+00   0.627964E-03   0.000000E+00
     1     5    55  -0.540003E+00  -0.241033E+00   0.515235E-03   0.000000E+00
 
 
 SOLVING FOR HEAD 
                                                   Max.-Head-Change                         Max.-Flux-Residual
  Residual-Control   Outer-Iter.   Inner-Iter.     Column Row Layer    Maximum-Head-Change  Column Row Layer    Maximum-Flux-Residual          L2-NORM 
          0                 1           2             1    4     1      -0.4433168714E-01       1    5    1        -0.7704393148E-03      0.1066778655E-01
          0                 2           2             1    1     1       0.3967717203E-02       1    3    1         0.7704466298E-04      0.1017260203E-02
          0                 3           2             1    1     1      -0.3203944070E-03       1    5    1        -0.6934460096E-05      0.9585997058E-04
          0                 4           1             1    1     1       0.2294178518E-04       3    4    1        -0.7885674549E-06      0.8463635169E-05
          0                 5           1             1    1     1      -0.1376646829E-05       2    4    1         0.7792385404E-07      0.6429021243E-06
          0                 6           1             1    1     1       0.7198073922E-07       2    4    1        -0.5831513050E-08      0.4182383518E-07

    ------------------------------------------------
       NWT REQUIRED            6 OUTER ITERATIONS 
       AND A TOTAL OF          9 INNER ITERATIONS.
    ------------------------------------------------

 NO OUTPUT CONTROL FOR STRESS PERIOD   42   TIME STEP   27
 
 WELLS WITH REDUCED PUMPING FOR STRESS PERIOD    42 TIME STEP    27
   LAY   ROW   COL         APPL.Q          ACT.Q        GW-HEAD       CELL-BOT
     1     3    50  -0.540001E+00  -0.318976E+00   0.628055E-03   0.000000E+00
     1     5    55  -0.540001E+00  -0.241189E+00   0.515450E-03   0.000000E+00
 
 
 SOLVING FOR HEAD 
                                                   Max.-Head-Change                         Max.-Flux-Residual
  Residual-Control   Outer-Iter.   Inner-Iter.     Column Row Layer    Maximum-Head-Change  Column Row Layer    Maximum-Flux-Residual          L2-NORM 
          0                 1           3             1    1     1      -0.4861231241E-01       1    5    1        -0.7805857610E-03      0.1074775824E-01
          0                 2           2             1    1     1       0.4364052932E-02       1    5    1         0.7805115324E-04      0.1036037010E-02
          0                 3           2             1    1     1      -0.3518275056E-03       1    5    1        -0.7025139745E-05      0.9829937292E-04
          0                 4           1             1    1     1       0.2510895464E-04       1    4    1        -0.8347739389E-06      0.8705638502E-05
          0                 5           1             1    1     1      -0.1477549837E-05       2    4    1         0.8131603479E-07      0.6569633614E-06
          0                 6           1             1    1     1       0.7607219108E-07       2    4    1        -0.6025405952E-08      0.4253358324E-07

    ------------------------------------------------
       NWT REQUIRED            6 OUTER ITERATIONS 
       AND A TOTAL OF         10 INNER ITERATIONS.
    ------------------------------------------------

 NO OUTPUT CONTROL FOR STRESS PERIOD   42   TIME STEP   28
 
 WELLS WITH REDUCED PUMPING FOR STRESS PERIOD    42 TIME STEP    28
   LAY   ROW   COL         APPL.Q          ACT.Q        GW-HEAD       CELL-BOT
     1     3    50  -0.539991E+00  -0.318855E+00   0.627893E-03   0.000000E+00
     1     5    55  -0.539991E+00  -0.241165E+00   0.515424E-03   0.000000E+00
 
 
 SOLVING FOR HEAD 
                                                   Max.-Head-Change                         Max.-Flux-Residual
  Residual-Control   Outer-Iter.   Inner-Iter.     Column Row Layer    Maximum-Head-Change  Column Row Layer    Maximum-Flux-Residual          L2-NORM 
          0                 1           3             1    1     1      -0.5337700048E-01       1    5    1        -0.7773735958E-03      0.1078392087E-01
          0                 2           2             1    1     1       0.4783678162E-02       1    5    1         0.7773024332E-04      0.1043180987E-02
          0                 3           2             1    1     1      -0.3847124312E-03       1    5    1        -0.6996300945E-05      0.9927580574E-04
          0                 4           1             1    1     1       0.2733241256E-04       1    4    1        -0.8405878056E-06      0.8813880209E-05
          0                 5           1             1    1     1      -0.1567621716E-05       2    4    1         0.8197293511E-07      0.6600672153E-06
          0                 6           1             1    1     1       0.7912512014E-07       2    4    1        -0.6050711931E-08      0.4252777795E-07

    ------------------------------------------------
       NWT REQUIRED            6 OUTER ITERATIONS 
       AND A TOTAL OF         10 INNER ITERATIONS.
    ------------------------------------------------

 NO OUTPUT CONTROL FOR STRESS PERIOD   42   TIME STEP   29
 
 WELLS WITH REDUCED PUMPING FOR STRESS PERIOD    42 TIME STEP    29
   LAY   ROW   COL         APPL.Q          ACT.Q        GW-HEAD       CELL-BOT
     1     3    50  -0.540006E+00  -0.318565E+00   0.627474E-03   0.000000E+00
     1     5    55  -0.540006E+00  -0.240988E+00   0.515171E-03   0.000000E+00
 
 
 SOLVING FOR HEAD 
                                                   Max.-Head-Change                         Max.-Flux-Residual
  Residual-Control   Outer-Iter.   Inner-Iter.     Column Row Layer    Maximum-Head-Change  Column Row Layer    Maximum-Flux-Residual          L2-NORM 
          0                 1           3             1    1     1      -0.5858146911E-01       1    2    1        -0.7755352890E-03      0.1077399542E-01
          0                 2           2             1    1     1       0.5241437706E-02       1    7    1         0.7754694931E-04      0.1045324679E-02
          0                 3           2             1    1     1      -0.4205085288E-03       1    7    1        -0.6979775588E-05      0.9970689982E-04
          0                 4           1             1    1     1       0.2973333595E-04       1    4    1        -0.8443934725E-06      0.8869654782E-05
          0                 5           1             1    1     1      -0.1651584501E-05       2    4    1         0.8245336502E-07      0.6577111780E-06
          0                 6           1             1    1     1       0.8146871903E-07       2    4    1        -0.6054214907E-08      0.4214368230E-07

    ------------------------------------------------
       NWT REQUIRED            6 OUTER ITERATIONS 
       AND A TOTAL OF         10 INNER ITERATIONS.
    ------------------------------------------------

 NO OUTPUT CONTROL FOR STRESS PERIOD   42   TIME STEP   30
 
 WELLS WITH REDUCED PUMPING FOR STRESS PERIOD    42 TIME STEP    30
   LAY   ROW   COL         APPL.Q          ACT.Q        GW-HEAD       CELL-BOT
     1     3    50  -0.540009E+00  -0.318324E+00   0.627133E-03   0.000000E+00
     1     5    55  -0.540009E+00  -0.240896E+00   0.515042E-03   0.000000E+00
 



 STREAM LISTING     PERIOD     42   STEP       30

 LAYER ROW COL. STREAM  RCH.   FLOW INTO    STREAM     FLOW OUT OF   OVRLND.    DIRECT     STREAM      STREAM      STREAM     STREAM  STREAMBED   FLOW TO   CHNG. UNSAT. 
                SEG.NO.  NO.   STRM. RCH.    LOSS       STRM. RCH.   RUNOFF     PRECIP       ET         HEAD        DEPTH      WIDTH  CONDCTNC.   WAT. TAB.

   1    4    1     1     1    9.1100E+00  2.7473E-03   9.1073E+00  0.000E+00  0.000E+00  0.000E+00  1.42146E+02  2.296E+00  4.559E+00  9.827E-04  2.708E-03  3.902E-05
   1    4    2     1     2    9.1073E+00  2.7466E-03   9.1045E+00  0.000E+00  0.000E+00  0.000E+00  1.41845E+02  2.295E+00  4.559E+00  9.826E-04  2.708E-03  3.902E-05
   1    4    3     1     3    9.1045E+00  2.7459E-03   9.1018E+00  0.000E+00  0.000E+00  0.000E+00  1.41545E+02  2.295E+00  4.558E+00  9.825E-04  2.707E-03  3.898E-05
   1    4    4     1     4    9.1018E+00  2.7453E-03   9.0990E+00  0.000E+00  0.000E+00  0.000E+00  1.41244E+02  2.294E+00  4.558E+00  9.824E-04  2.706E-03  3.892E-05
   1    4    5     1     5    9.0990E+00  2.7446E-03   9.0963E+00  0.000E+00  0.000E+00  0.000E+00  1.40944E+02  2.294E+00  4.557E+00  9.823E-04  2.706E-03  3.883E-05
   1    4    6     1     6    9.0963E+00  2.7439E-03   9.0935E+00  0.000E+00  0.000E+00  0.000E+00  1.40644E+02  2.294E+00  4.557E+00  9.822E-04  2.705E-03  3.872E-05
   1    4    7     1     7    9.0935E+00  2.7433E-03   9.0908E+00  0.000E+00  0.000E+00  0.000E+00  1.40343E+02  2.293E+00  4.556E+00  9.820E-04  2.705E-03  3.857E-05
   1    4    8     1     8    9.0908E+00  2.7426E-03   9.0880E+00  0.000E+00  0.000E+00  0.000E+00  1.40043E+02  2.293E+00  4.556E+00  9.819E-04  2.704E-03  3.840E-05
   1    4    9     1     9    9.0880E+00  2.7419E-03   9.0853E+00  0.000E+00  0.000E+00  0.000E+00  1.39743E+02  2.293E+00  4.556E+00  9.818E-04  2.704E-03  3.820E-05
   1    4   10     1    10    9.0853E+00  2.7413E-03   9.0826E+00  0.000E+00  0.000E+00  0.000E+00  1.39442E+02  2.292E+00  4.555E+00  9.817E-04  2.703E-03  3.797E-05
   1    4   11     1    11    9.0826E+00  2.7406E-03   9.0798E+00  0.000E+00  0.000E+00  0.000E+00  1.39142E+02  2.292E+00  4.555E+00  9.816E-04  2.703E-03  3.771E-05
   1    4   12     1    12    9.0798E+00  2.7399E-03   9.0771E+00  0.000E+00  0.000E+00  0.000E+00  1.38842E+02  2.292E+00  4.554E+00  9.815E-04  2.703E-03  3.742E-05
   1    4   13     1    13    9.0771E+00  2.7393E-03   9.0743E+00  0.000E+00  0.000E+00  0.000E+00  1.38541E+02  2.291E+00  4.554E+00  9.814E-04  2.702E-03  3.710E-05
   1    4   14     1    14    9.0743E+00  2.7386E-03   9.0716E+00  0.000E+00  0.000E+00  0.000E+00  1.38241E+02  2.291E+00  4.553E+00  9.812E-04  2.702E-03  3.674E-05
   1    4   15     1    15    9.0716E+00  2.7379E-03   9.0689E+00  0.000E+00  0.000E+00  0.000E+00  1.37941E+02  2.291E+00  4.553E+00  9.811E-04  2.702E-03  3.634E-05
   1    4   16     1    16    9.0689E+00  2.7373E-03   9.0661E+00  0.000E+00  0.000E+00  0.000E+00  1.37640E+02  2.290E+00  4.553E+00  9.810E-04  2.701E-03  3.591E-05
   1    4   17     1    17    9.0661E+00  2.7366E-03   9.0634E+00  0.000E+00  0.000E+00  0.000E+00  1.37340E+02  2.290E+00  4.552E+00  9.809E-04  2.701E-03  3.544E-05
   1    4   18     1    18    9.0634E+00  2.7360E-03   9.0606E+00  0.000E+00  0.000E+00  0.000E+00  1.37040E+02  2.290E+00  4.552E+00  9.808E-04  2.701E-03  3.493E-05
   1    4   19     1    19    9.0606E+00  2.7353E-03   9.0579E+00  0.000E+00  0.000E+00  0.000E+00  1.36739E+02  2.289E+00  4.551E+00  9.807E-04  2.701E-03  3.438E-05
   1    4   20     1    20    9.0579E+00  2.7346E-03   9.0552E+00  0.000E+00  0.000E+00  0.000E+00  1.36439E+02  2.289E+00  4.551E+00  9.806E-04  2.701E-03  3.379E-05
   1    4   21     1    21    9.0552E+00  2.7340E-03   9.0524E+00  0.000E+00  0.000E+00  0.000E+00  1.36139E+02  2.289E+00  4.551E+00  9.804E-04  2.701E-03  3.316E-05
   1    4   22     1    22    9.0524E+00  2.7333E-03   9.0497E+00  0.000E+00  0.000E+00  0.000E+00  1.35838E+02  2.288E+00  4.550E+00  9.803E-04  2.704E-03  2.941E-05
   1    4   23     1    23    9.0497E+00  2.7326E-03   9.0470E+00  0.000E+00  0.000E+00  0.000E+00  1.35538E+02  2.288E+00  4.550E+00  9.802E-04  2.704E-03  2.862E-05
   1    4   24     1    24    9.0470E+00  2.7320E-03   9.0442E+00  0.000E+00  0.000E+00  0.000E+00  1.35237E+02  2.287E+00  4.549E+00  9.801E-04  2.704E-03  2.777E-05
   1    4   25     1    25    9.0442E+00  2.7313E-03   9.0415E+00  0.000E+00  0.000E+00  0.000E+00  1.34937E+02  2.287E+00  4.549E+00  9.800E-04  2.704E-03  2.687E-05
   1    4   26     1    26    9.0415E+00  2.7306E-03   9.0388E+00  0.000E+00  0.000E+00  0.000E+00  1.34637E+02  2.287E+00  4.548E+00  9.799E-04  2.705E-03  2.591E-05
   1    4   27     1    27    9.0388E+00  2.7300E-03   9.0361E+00  0.000E+00  0.000E+00  0.000E+00  1.34336E+02  2.286E+00  4.548E+00  9.797E-04  2.705E-03  2.490E-05
   1    4   28     1    28    9.0361E+00  2.7293E-03   9.0333E+00  0.000E+00  0.000E+00  0.000E+00  1.34036E+02  2.286E+00  4.548E+00  9.796E-04  2.705E-03  2.383E-05
   1    4   29     1    29    9.0333E+00  2.7287E-03   9.0306E+00  0.000E+00  0.000E+00  0.000E+00  1.33736E+02  2.286E+00  4.547E+00  9.795E-04  2.706E-03  2.271E-05
   1    4   30     1    30    9.0306E+00  2.7280E-03   9.0279E+00  0.000E+00  0.000E+00  0.000E+00  1.33435E+02  2.285E+00  4.547E+00  9.794E-04  2.706E-03  2.153E-05
   1    4   31     1    31    9.0279E+00  2.7273E-03   9.0251E+00  0.000E+00  0.000E+00  0.000E+00  1.33135E+02  2.285E+00  4.546E+00  9.793E-04  2.707E-03  2.027E-05
   1    4   32     1    32    9.0251E+00  2.7267E-03   9.0224E+00  0.000E+00  0.000E+00  0.000E+00  1.32835E+02  2.285E+00  4.546E+00  9.792E-04  2.708E-03  1.895E-05
   1    4   33     1    33    9.0224E+00  2.7260E-03   9.0197E+00  0.000E+00  0.000E+00  0.000E+00  1.32534E+02  2.284E+00  4.546E+00  9.791E-04  2.708E-03  1.759E-05
   1    4   34     1    34    9.0197E+00  2.7253E-03   9.0170E+00  0.000E+00  0.000E+00  0.000E+00  1.32234E+02  2.284E+00  4.545E+00  9.789E-04  2.709E-03  1.622E-05
   1    4   35     1    35    9.0170E+00  2.7247E-03   9.0142E+00  0.000E+00  0.000E+00  0.000E+00  1.31934E+02  2.284E+00  4.545E+00  9.788E-04  2.710E-03  1.478E-05
   1    4   36     1    36    9.0142E+00  2.7240E-03   9.0115E+00  0.000E+00  0.000E+00  0.000E+00  1.31633E+02  2.283E+00  4.544E+00  9.787E-04  2.711E-03  1.328E-05
   1    4   37     1    37    9.0115E+00  2.7234E-03   9.0088E+00  0.000E+00  0.000E+00  0.000E+00  1.31333E+02  2.283E+00  4.544E+00  9.786E-04  2.712E-03  1.166E-05
   1    4   38     1    38    9.0088E+00  2.7227E-03   9.0061E+00  0.000E+00  0.000E+00  0.000E+00  1.31033E+02  2.283E+00  4.543E+00  9.785E-04  2.726E-03 -3.670E-06
   1    4   39     1    39    9.0061E+00  2.7220E-03   9.0033E+00  0.000E+00  0.000E+00  0.000E+00  1.30732E+02  2.282E+00  4.543E+00  9.784E-04  2.752E-03 -2.962E-05
   1    4   40     1    40    9.0033E+00  2.7214E-03   9.0006E+00  0.000E+00  0.000E+00  0.000E+00  1.30432E+02  2.282E+00  4.543E+00  9.783E-04  2.779E-03 -5.726E-05
   1    4   41     1    41    9.0006E+00  2.7207E-03   8.9979E+00  0.000E+00  0.000E+00  0.000E+00  1.30132E+02  2.281E+00  4.542E+00  9.781E-04  2.808E-03 -8.683E-05
   1    4   42     1    42    8.9979E+00  2.7201E-03   8.9952E+00  0.000E+00  0.000E+00  0.000E+00  1.29831E+02  2.281E+00  4.542E+00  9.780E-04  2.820E-03 -9.963E-05
   1    4   43     1    43    8.9952E+00  2.7194E-03   8.9925E+00  0.000E+00  0.000E+00  0.000E+00  1.29531E+02  2.281E+00  4.541E+00  9.779E-04  2.827E-03 -1.074E-04
   1    4   44     1    44    8.9925E+00  2.7187E-03   8.9897E+00  0.000E+00  0.000E+00  0.000E+00  1.29230E+02  2.280E+00  4.541E+00  9.778E-04  2.860E-03 -1.414E-04
   1    4   45     1    45    8.9897E+00  2.7181E-03   8.9870E+00  0.000E+00  0.000E+00  0.000E+00  1.28930E+02  2.280E+00  4.540E+00  9.777E-04  2.897E-03 -1.786E-04
   1    4   46     1    46    8.9870E+00  2.7174E-03   8.9843E+00  0.000E+00  0.000E+00  0.000E+00  1.28630E+02  2.280E+00  4.540E+00  9.776E-04  2.932E-03 -2.142E-04
   1    4   47     1    47    8.9843E+00  2.7168E-03   8.9816E+00  0.000E+00  0.000E+00  0.000E+00  1.28329E+02  2.279E+00  4.540E+00  9.775E-04  2.958E-03 -2.412E-04
   1    4   48     1    48    8.9816E+00  2.7161E-03   8.9789E+00  0.000E+00  0.000E+00  0.000E+00  1.28029E+02  2.279E+00  4.539E+00  9.773E-04  3.007E-03 -2.911E-04
   1    4   49     1    49    8.9789E+00  2.7154E-03   8.9762E+00  0.000E+00  0.000E+00  0.000E+00  1.27729E+02  2.279E+00  4.539E+00  9.772E-04  3.070E-03 -3.548E-04
   1    4   50     1    50    8.9762E+00  2.7148E-03   8.9734E+00  0.000E+00  0.000E+00  0.000E+00  1.27428E+02  2.278E+00  4.538E+00  9.771E-04  2.339E-03  3.753E-04
   1    4   51     1    51    8.9734E+00  2.7141E-03   8.9707E+00  0.000E+00  0.000E+00  0.000E+00  1.27128E+02  2.278E+00  4.538E+00  9.770E-04  2.337E-03  3.768E-04
   1    4   52     1    52    8.9707E+00  2.7135E-03   8.9680E+00  0.000E+00  0.000E+00  0.000E+00  1.26828E+02  2.278E+00  4.538E+00  9.769E-04  2.419E-03  2.940E-04
   1    4   53     1    53    8.9680E+00  2.7128E-03   8.9653E+00  0.000E+00  0.000E+00  0.000E+00  1.26527E+02  2.277E+00  4.537E+00  9.768E-04  2.424E-03  2.890E-04
   1    4   54     1    54    8.9653E+00  2.7121E-03   8.9626E+00  0.000E+00  0.000E+00  0.000E+00  1.26227E+02  2.277E+00  4.537E+00  9.767E-04  2.357E-03  3.554E-04
   1    4   55     1    55    8.9626E+00  2.7115E-03   8.9599E+00  0.000E+00  0.000E+00  0.000E+00  1.25927E+02  2.277E+00  4.536E+00  9.765E-04  2.336E-03  3.758E-04
   1    4   56     1    56    8.9599E+00  2.7108E-03   8.9572E+00  0.000E+00  0.000E+00  0.000E+00  1.25626E+02  2.276E+00  4.536E+00  9.764E-04  3.077E-03 -3.658E-04
   1    4   57     1    57    8.9572E+00  2.7102E-03   8.9545E+00  0.000E+00  0.000E+00  0.000E+00  1.25326E+02  2.276E+00  4.535E+00  9.763E-04  3.018E-03 -3.079E-04
   1    4   58     1    58    8.9545E+00  2.7095E-03   8.9518E+00  0.000E+00  0.000E+00  0.000E+00  1.25026E+02  2.276E+00  4.535E+00  9.762E-04  2.971E-03 -2.612E-04
   1    4   59     1    59    8.9518E+00  2.7088E-03   8.9490E+00  0.000E+00  0.000E+00  0.000E+00  1.24725E+02  2.275E+00  4.535E+00  9.761E-04  2.932E-03 -2.232E-04
   1    4   60     1    60    8.9490E+00  2.7082E-03   8.9463E+00  0.000E+00  0.000E+00  0.000E+00  1.24425E+02  2.275E+00  4.534E+00  9.760E-04  2.913E-03 -2.053E-04
   1    4   61     1    61    8.9463E+00  2.7075E-03   8.9436E+00  0.000E+00  0.000E+00  0.000E+00  1.24124E+02  2.274E+00  4.534E+00  9.759E-04  2.876E-03 -1.689E-04
   1    4   62     1    62    8.9436E+00  2.7069E-03   8.9409E+00  0.000E+00  0.000E+00  0.000E+00  1.23824E+02  2.274E+00  4.533E+00  9.757E-04  2.842E-03 -1.353E-04
   1    4   63     1    63    8.9409E+00  2.7062E-03   8.9382E+00  0.000E+00  0.000E+00  0.000E+00  1.23524E+02  2.274E+00  4.533E+00  9.756E-04  2.819E-03 -1.128E-04
   1    4   64     1    64    8.9382E+00  2.7055E-03   8.9355E+00  0.000E+00  0.000E+00  0.000E+00  1.23223E+02  2.273E+00  4.533E+00  9.755E-04  2.817E-03 -1.119E-04
   1    4   65     1    65    8.9355E+00  2.7049E-03   8.9328E+00  0.000E+00  0.000E+00  0.000E+00  1.22923E+02  2.273E+00  4.532E+00  9.754E-04  2.793E-03 -8.790E-05
   1    4   66     1    66    8.9328E+00  2.7042E-03   8.9301E+00  0.000E+00  0.000E+00  0.000E+00  1.22623E+02  2.273E+00  4.532E+00  9.753E-04  2.763E-03 -5.915E-05
   1    4   67     1    67    8.9301E+00  2.7036E-03   8.9274E+00  0.000E+00  0.000E+00  0.000E+00  1.22322E+02  2.272E+00  4.531E+00  9.752E-04  2.735E-03 -3.178E-05
   1    4   68     1    68    8.9274E+00  2.7029E-03   8.9247E+00  0.000E+00  0.000E+00  0.000E+00  1.22022E+02  2.272E+00  4.531E+00  9.751E-04  2.710E-03 -7.405E-06
   1    4   69     1    69    8.9247E+00  2.7023E-03   8.9220E+00  0.000E+00  0.000E+00  0.000E+00  1.21722E+02  2.272E+00  4.530E+00  9.749E-04  2.709E-03 -7.186E-06
   1    4   70     1    70    8.9220E+00  2.7016E-03   8.9193E+00  0.000E+00  0.000E+00  0.000E+00  1.21421E+02  2.271E+00  4.530E+00  9.748E-04  2.709E-03 -7.151E-06
   1    4   71     1    71    8.9193E+00  2.7009E-03   8.9166E+00  0.000E+00  0.000E+00  0.000E+00  1.21121E+02  2.271E+00  4.530E+00  9.747E-04  2.708E-03 -7.239E-06
   1    4   72     1    72    8.9166E+00  2.7003E-03   8.9139E+00  0.000E+00  0.000E+00  0.000E+00  1.20821E+02  2.271E+00  4.529E+00  9.746E-04  2.708E-03 -7.424E-06
   1    4   73     1    73    8.9139E+00  2.6996E-03   8.9112E+00  0.000E+00  0.000E+00  0.000E+00  1.20520E+02  2.270E+00  4.529E+00  9.745E-04  2.707E-03 -7.607E-06
   1    4   74     1    74    8.9112E+00  2.6990E-03   8.9085E+00  0.000E+00  0.000E+00  0.000E+00  1.20220E+02  2.270E+00  4.528E+00  9.744E-04  2.707E-03 -7.895E-06
   1    4   75     1    75    8.9085E+00  2.6983E-03   8.9058E+00  0.000E+00  0.000E+00  0.000E+00  1.19920E+02  2.270E+00  4.528E+00  9.743E-04  2.707E-03 -8.288E-06
   1    4   76     1    76    8.9058E+00  2.6977E-03   8.9031E+00  0.000E+00  0.000E+00  0.000E+00  1.19619E+02  2.269E+00  4.527E+00  9.742E-04  2.706E-03 -8.781E-06
   1    4   77     1    77    8.9031E+00  2.6970E-03   8.9004E+00  0.000E+00  0.000E+00  0.000E+00  1.19319E+02  2.269E+00  4.527E+00  9.740E-04  2.706E-03 -9.347E-06
   1    4   78     1    78    8.9004E+00  2.6964E-03   8.8977E+00  0.000E+00  0.000E+00  0.000E+00  1.19019E+02  2.269E+00  4.527E+00  9.739E-04  2.706E-03 -9.987E-06
   1    4   79     1    79    8.8977E+00  2.6957E-03   8.8950E+00  0.000E+00  0.000E+00  0.000E+00  1.18718E+02  2.268E+00  4.526E+00  9.738E-04  2.706E-03 -1.069E-05
   1    4   80     1    80    8.8950E+00  2.6950E-03   8.8923E+00  0.000E+00  0.000E+00  0.000E+00  1.18418E+02  2.268E+00  4.526E+00  9.737E-04  2.706E-03 -1.145E-05
   1    4   81     1    81    8.8923E+00  2.6944E-03   8.8896E+00  0.000E+00  0.000E+00  0.000E+00  1.18118E+02  2.268E+00  4.525E+00  9.736E-04  2.707E-03 -1.225E-05
   1    4   82     1    82    8.8896E+00  2.6937E-03   8.8869E+00  0.000E+00  0.000E+00  0.000E+00  1.17817E+02  2.267E+00  4.525E+00  9.735E-04  2.707E-03 -1.308E-05
   1    4   83     1    83    8.8869E+00  2.6931E-03   8.8842E+00  0.000E+00  0.000E+00  0.000E+00  1.17517E+02  2.267E+00  4.525E+00  9.734E-04  2.707E-03 -1.392E-05
   1    4   84     1    84    8.8842E+00  2.6924E-03   8.8815E+00  0.000E+00  0.000E+00  0.000E+00  1.17216E+02  2.266E+00  4.524E+00  9.732E-04  2.707E-03 -1.478E-05
   1    4   85     1    85    8.8815E+00  2.6918E-03   8.8788E+00  0.000E+00  0.000E+00  0.000E+00  1.16916E+02  2.266E+00  4.524E+00  9.731E-04  2.707E-03 -1.568E-05
   1    4   86     1    86    8.8788E+00  2.6911E-03   8.8762E+00  0.000E+00  0.000E+00  0.000E+00  1.16616E+02  2.266E+00  4.523E+00  9.730E-04  2.708E-03 -1.668E-05
   1    4   87     1    87    8.8762E+00  2.6905E-03   8.8735E+00  0.000E+00  0.000E+00  0.000E+00  1.16315E+02  2.265E+00  4.523E+00  9.729E-04  2.708E-03 -1.795E-05
   1    4   88     1    88    8.8735E+00  2.6898E-03   8.8708E+00  0.000E+00  0.000E+00  0.000E+00  1.16015E+02  2.265E+00  4.522E+00  9.728E-04  2.843E-03 -1.535E-04
   1    4   89     1    89    8.8708E+00  2.6891E-03   8.8681E+00  0.000E+00  0.000E+00  0.000E+00  1.15715E+02  2.265E+00  4.522E+00  9.727E-04  3.063E-03 -3.741E-04
   1    4   90     1    90    8.8681E+00  2.6885E-03   8.8654E+00  0.000E+00  0.000E+00  0.000E+00  1.15414E+02  2.264E+00  4.522E+00  9.726E-04  3.110E-03 -4.211E-04
   1    4   91     1    91    8.8654E+00  2.6878E-03   8.8627E+00  0.000E+00  0.000E+00  0.000E+00  1.15114E+02  2.264E+00  4.521E+00  9.724E-04  3.108E-03 -4.197E-04
   1    4   92     1    92    8.8627E+00  2.6872E-03   8.8600E+00  0.000E+00  0.000E+00  0.000E+00  1.14814E+02  2.264E+00  4.521E+00  9.723E-04  3.106E-03 -4.189E-04
   1    4   93     1    93    8.8600E+00  2.6865E-03   8.8573E+00  0.000E+00  0.000E+00  0.000E+00  1.14513E+02  2.263E+00  4.520E+00  9.722E-04  3.105E-03 -4.183E-04
   1    4   94     1    94    8.8573E+00  2.6859E-03   8.8547E+00  0.000E+00  0.000E+00  0.000E+00  1.14213E+02  2.263E+00  4.520E+00  9.721E-04  3.104E-03 -4.177E-04
   1    4   95     1    95    8.8547E+00  2.6852E-03   8.8520E+00  0.000E+00  0.000E+00  0.000E+00  1.13913E+02  2.263E+00  4.520E+00  9.720E-04  3.102E-03 -4.169E-04
   1    4   96     1    96    8.8520E+00  2.6846E-03   8.8493E+00  0.000E+00  0.000E+00  0.000E+00  1.13612E+02  2.262E+00  4.519E+00  9.719E-04  3.086E-03 -4.016E-04
   1    4   97     1    97    8.8493E+00  2.6839E-03   8.8466E+00  0.000E+00  0.000E+00  0.000E+00  1.13312E+02  2.262E+00  4.519E+00  9.718E-04  3.055E-03 -3.711E-04
   1    4   98     1    98    8.8466E+00  2.6833E-03   8.8439E+00  0.000E+00  0.000E+00  0.000E+00  1.13012E+02  2.262E+00  4.518E+00  9.716E-04  3.025E-03 -3.416E-04
   1    4   99     1    99    8.8439E+00  2.6826E-03   8.8412E+00  0.000E+00  0.000E+00  0.000E+00  1.12711E+02  2.261E+00  4.518E+00  9.715E-04  2.996E-03 -3.131E-04
   1    4  100     1   100    8.8412E+00  2.6820E-03   8.8385E+00  0.000E+00  0.000E+00  0.000E+00  1.12411E+02  2.261E+00  4.517E+00  9.714E-04  2.969E-03 -2.866E-04



1
  VOLUMETRIC BUDGET FOR UNSATURATED ZONE BENEATH STREAMS AT END OF TIME STEP    30 STRESS PERIOD  42
  ------------------------------------------------------------------------------------------------

    CUMULATIVE VOLUMES             L**3    RATES FOR THIS TIME STEP         L**3/T
    ------------------                     ------------------------


          STREAM LOSS =     33228990.0000            STREAM LOSS =            0.2714
    CHANGE IN STORAGE =      1925578.0000      CHANGE IN STORAGE =       -5.6557E-03
       RECHARGE TO GW =     31311006.0000         RECHARGE TO GW =            0.2771

             TOTAL IN =     33228990.0000               TOTAL IN =            0.2771

            TOTAL OUT =     33236584.0000              TOTAL OUT =            0.2771

             IN - OUT =        -7594.0000               IN - OUT =       -2.9802E-08

  PERCENT DISCREPANCY =           -0.01      PERCENT DISCREPANCY =            -0.00



1
  VOLUMETRIC BUDGET FOR ENTIRE MODEL AT END OF TIME STEP   30, STRESS PERIOD  42
  ------------------------------------------------------------------------------

     CUMULATIVE VOLUMES      L**3       RATES FOR THIS TIME STEP      L**3/T
     ------------------                 ------------------------

           IN:                                      IN:
           ---                                      ---
             STORAGE     =   113062168.0000               STORAGE     =           0.2058
       CONSTANT HEAD     =           0.0000         CONSTANT HEAD     =           0.0000
               WELLS     =           0.0000                 WELLS     =           0.0000
     HEAD DEP BOUNDS     =     2364076.0000       HEAD DEP BOUNDS     =       7.8573E-02
      STREAM LEAKAGE     =    31310494.0000        STREAM LEAKAGE     =           0.2771

                TOTAL IN =   146736736.0000                  TOTAL IN =           0.5615

          OUT:                                     OUT:
          ----                                     ----
             STORAGE     =     3099923.7500               STORAGE     =       2.2573E-03
       CONSTANT HEAD     =           0.0000         CONSTANT HEAD     =           0.0000
               WELLS     =   127277488.0000                 WELLS     =           0.5592
     HEAD DEP BOUNDS     =    16359348.0000       HEAD DEP BOUNDS     =           0.0000
      STREAM LEAKAGE     =           0.0000        STREAM LEAKAGE     =           0.0000

               TOTAL OUT =   146736752.0000                 TOTAL OUT =           0.5615

                IN - OUT =         -16.0000                  IN - OUT =           0.0000

     PERCENT DISCREPANCY =          -0.00         PERCENT DISCREPANCY =           0.00






         TIME SUMMARY AT END OF TIME STEP   30 IN STRESS PERIOD   42
                    SECONDS     MINUTES      HOURS       DAYS        YEARS
                    -----------------------------------------------------------
   TIME STEP LENGTH 2.49961E+05  4166.0      69.434      2.8931     7.92080E-03
 STRESS PERIOD TIME 2.59200E+06  43200.      720.00      30.000     8.21355E-02
         TOTAL TIME 1.08864E+08 1.81440E+06  30240.      1260.0      3.4497    
1
1
                            STRESS PERIOD NO.   43, LENGTH =   2592000.    
                            -----------------------------------------------

                              NUMBER OF TIME STEPS =    30

                               MULTIPLIER FOR DELT =     1.100

                            INITIAL TIME STEP SIZE =   15757.40    

 REUSING NON-PARAMETER WELLS FROM LAST STRESS PERIOD

      1 WELL 

 REUSING NON-PARAMETER GHB CELLS FROM LAST STRESS PERIOD

      7 GHB CELLS



 CLASSIFICATION & COUNT OF STREAM SEGMENTS BASED ON SOURCE OF INFLOW:

                HEADWATER     DIVERSION     RECEIVES TRIBUTARY FLOW
                ---------     ---------     -----------------------
                     1              0               0



                    INPUT DATA FOR EACH STREAM SEGMENT
 ---------------------------------------------------------------------------------------------

 SEGMENT    SEG.     INFLOW   OVERLAND   STREAM    STREAM   ICALC  OUTFLOW  DIVERSION PRIORITY
    NO.    LENGTH     RATE     RUNOFF      ET       PPT.    METH.  TO SEG.  FROM SEG.    NO.

      1  2.000E+04 9.980E+00 0.000E+00 0.000E+00 0.000E+00    2        0        0        0


         STREAMBED PROPERTIES AND STREAM DIMENSIONS

 SEGMENT     BED HYD. COND.      BED THICKNESS     ELEV.-TOP OF BED     WIDTH OF STREAM     DEPTH OF STREAM    STREAM ROUGHNESS
    No.     UPPER     LOWER     UPPER     LOWER     UPPER     LOWER     UPPER     LOWER     UPPER     LOWER   CHANNEL      BANK

     1  3.500E-07 3.500E-07                                                                                 3.000E-02 4.000E-02

  EIGHT POINT CROSS-SECTION DATA FOR SEGMENTS WITH ICALC = 2
    X VALUES X VALUES START FROM LEFT SIDE LOOKING DOWNSTREAM

     SEGMENT NO.        X1        X2        X3        X4        X5        X6        X7        X8
            1      0.000E+00 2.000E+00 4.000E+00 6.000E+00 8.000E+00 1.000E+01 1.200E+01 1.400E+01

    Z VALUES ARE RELATIVE TO STREAMBED ELEVATION

     SEGMENT NO.          Z1        Z2        Z3        Z4        Z5        Z6        Z7        Z8
            1      6.000E+00 4.500E+00 3.500E+00 0.000E+00 3.000E-01 3.500E+00 4.500E+00 6.000E+00



 
 SOLVING FOR HEAD 
                                                   Max.-Head-Change                         Max.-Flux-Residual
  Residual-Control   Outer-Iter.   Inner-Iter.     Column Row Layer    Maximum-Head-Change  Column Row Layer    Maximum-Flux-Residual          L2-NORM 
          0                 1           2             1    1     1      -0.3718564049E-02      50    3    1        -0.2363044980E-01      0.3153923631E-01
          0                 2           2             1    1     1       0.3612527535E-03      50    3    1         0.2522324725E-02      0.3220902137E-02
          0                 3           1             1    1     1      -0.3182925195E-04      50    3    1        -0.2259358061E-03      0.2903270331E-03
          0                 4           1             1    1     1       0.2509175996E-05      50    3    1         0.1810636273E-04      0.2331739044E-04
          0                 5           1             1    1     1      -0.1741907796E-06      50    3    1        -0.1272793054E-05      0.1641524088E-05

    ------------------------------------------------
       NWT REQUIRED            5 OUTER ITERATIONS 
       AND A TOTAL OF          7 INNER ITERATIONS.
    ------------------------------------------------

 NO OUTPUT CONTROL FOR STRESS PERIOD   43   TIME STEP    1
 
 WELLS WITH REDUCED PUMPING FOR STRESS PERIOD    43 TIME STEP     1
   LAY   ROW   COL         APPL.Q          ACT.Q        GW-HEAD       CELL-BOT
     1     3    50  -0.580096E+00  -0.318319E+00   0.596441E-03   0.000000E+00
     1     5    55  -0.580096E+00  -0.240898E+00   0.492032E-03   0.000000E+00
 
 
 SOLVING FOR HEAD 
                                                   Max.-Head-Change                         Max.-Flux-Residual
  Residual-Control   Outer-Iter.   Inner-Iter.     Column Row Layer    Maximum-Head-Change  Column Row Layer    Maximum-Flux-Residual          L2-NORM 
          0                 1           2             1    1     1      -0.4088891956E-02       1    1    1        -0.7737685898E-03      0.1076610998E-01
          0                 2           2             1    1     1       0.3962547498E-03       1    1    1         0.7737677078E-04      0.1043878428E-02
          0                 3           1             1    1     1      -0.3484339614E-04       1    1    1        -0.6963919409E-05      0.9649633412E-04
          0                 4           1             1    1     1       0.2742749801E-05       1    1    1         0.5578099778E-06      0.7929521140E-05
          0                 5           1             1    1     1      -0.1902220722E-06       1    4    1         0.3933930870E-07      0.5658019245E-06

    ------------------------------------------------
       NWT REQUIRED            5 OUTER ITERATIONS 
       AND A TOTAL OF          7 INNER ITERATIONS.
    ------------------------------------------------

 NO OUTPUT CONTROL FOR STRESS PERIOD   43   TIME STEP    2
 
 WELLS WITH REDUCED PUMPING FOR STRESS PERIOD    43 TIME STEP     2
   LAY   ROW   COL         APPL.Q          ACT.Q        GW-HEAD       CELL-BOT
     1     3    50  -0.580096E+00  -0.318309E+00   0.596428E-03   0.000000E+00
     1     5    55  -0.580096E+00  -0.240899E+00   0.492033E-03   0.000000E+00
 
 
 SOLVING FOR HEAD 
                                                   Max.-Head-Change                         Max.-Flux-Residual
  Residual-Control   Outer-Iter.   Inner-Iter.     Column Row Layer    Maximum-Head-Change  Column Row Layer    Maximum-Flux-Residual          L2-NORM 
          0                 1           2             1    1     1      -0.4495970135E-02       1    1    1        -0.7736526950E-03      0.1075139524E-01
          0                 2           2             1    1     1       0.4345639245E-03       1    1    1         0.7736516126E-04      0.1044499674E-02
          0                 3           1             1    1     1      -0.3812768901E-04       1    1    1        -0.6962876602E-05      0.9672085652E-04
          0                 4           1             1    1     1       0.2996221440E-05       1    1    1         0.5577264197E-06      0.7971957545E-05
          0                 5           1             1    1     1      -0.2075610697E-06       1    4    1         0.4143869958E-07      0.5703783733E-06

    ------------------------------------------------
       NWT REQUIRED            5 OUTER ITERATIONS 
       AND A TOTAL OF          7 INNER ITERATIONS.
    ------------------------------------------------

 NO OUTPUT CONTROL FOR STRESS PERIOD   43   TIME STEP    3
 
 WELLS WITH REDUCED PUMPING FOR STRESS PERIOD    43 TIME STEP     3
   LAY   ROW   COL         APPL.Q          ACT.Q        GW-HEAD       CELL-BOT
     1     3    50  -0.579925E+00  -0.318305E+00   0.596543E-03   0.000000E+00
     1     5    55  -0.579925E+00  -0.240905E+00   0.492132E-03   0.000000E+00
 
 
 SOLVING FOR HEAD 
                                                   Max.-Head-Change                         Max.-Flux-Residual
  Residual-Control   Outer-Iter.   Inner-Iter.     Column Row Layer    Maximum-Head-Change  Column Row Layer    Maximum-Flux-Residual          L2-NORM 
          0                 1           2             1    1     1      -0.4943431138E-02       1    1    1        -0.7735251239E-03      0.1075075052E-01
          0                 2           2             1    1     1       0.4764886102E-03       1    1    1         0.7735238035E-04      0.1044969041E-02
          0                 3           1             1    1     1      -0.4170517144E-04       1    1    1        -0.6961728749E-05      0.9692032152E-04
          0                 4           1             1    1     1       0.3271089037E-05       1    1    1         0.5576344453E-06      0.8013460789E-05
          0                 5           1             1    1     1      -0.2262920396E-06       1    4    1         0.4354641803E-07      0.5750593125E-06

    ------------------------------------------------
       NWT REQUIRED            5 OUTER ITERATIONS 
       AND A TOTAL OF          7 INNER ITERATIONS.
    ------------------------------------------------

 NO OUTPUT CONTROL FOR STRESS PERIOD   43   TIME STEP    4
 
 WELLS WITH REDUCED PUMPING FOR STRESS PERIOD    43 TIME STEP     4
   LAY   ROW   COL         APPL.Q          ACT.Q        GW-HEAD       CELL-BOT
     1     3    50  -0.580080E+00  -0.318302E+00   0.596429E-03   0.000000E+00
     1     5    55  -0.580080E+00  -0.240941E+00   0.492096E-03   0.000000E+00
 
 
 SOLVING FOR HEAD 
                                                   Max.-Head-Change                         Max.-Flux-Residual
  Residual-Control   Outer-Iter.   Inner-Iter.     Column Row Layer    Maximum-Head-Change  Column Row Layer    Maximum-Flux-Residual          L2-NORM 
          0                 1           2             1    1     1      -0.5435264750E-02       1    1    1        -0.7733848884E-03      0.1076250033E-01
          0                 2           2             1    1     1       0.5223672344E-03       1    1    1         0.7733832866E-04      0.1045150414E-02
          0                 3           1             1    1     1      -0.4560103697E-04       1    1    1        -0.6960466960E-05      0.9710770009E-04
          0                 4           1             1    1     1       0.3568975304E-05       1    1    1         0.5575333475E-06      0.8055336704E-05
          0                 5           1             1    1     1      -0.2465041628E-06       1    4    1         0.4565364264E-07      0.5799357539E-06

    ------------------------------------------------
       NWT REQUIRED            5 OUTER ITERATIONS 
       AND A TOTAL OF          7 INNER ITERATIONS.
    ------------------------------------------------

 NO OUTPUT CONTROL FOR STRESS PERIOD   43   TIME STEP    5
 
 WELLS WITH REDUCED PUMPING FOR STRESS PERIOD    43 TIME STEP     5
   LAY   ROW   COL         APPL.Q          ACT.Q        GW-HEAD       CELL-BOT
     1     3    50  -0.580040E+00  -0.318342E+00   0.596510E-03   0.000000E+00
     1     5    55  -0.580040E+00  -0.241078E+00   0.492294E-03   0.000000E+00
 
 
 SOLVING FOR HEAD 
                                                   Max.-Head-Change                         Max.-Flux-Residual
  Residual-Control   Outer-Iter.   Inner-Iter.     Column Row Layer    Maximum-Head-Change  Column Row Layer    Maximum-Flux-Residual          L2-NORM 
          0                 1           2             1    1     1      -0.5975854008E-02       1    1    1        -0.7732308545E-03      0.1076293621E-01
          0                 2           2             1    1     1       0.5725716728E-03       1    1    1         0.7732289218E-04      0.1045293795E-02
          0                 3           1             1    1     1      -0.4984290647E-04       1    1    1        -0.6959081027E-05      0.9728352201E-04
          0                 4           1             1    1     1       0.3891644781E-05       1    4    1        -0.5596091235E-06      0.8097076354E-05
          0                 5           1             1    1     1      -0.2682931312E-06       1    4    1         0.4775156626E-07      0.5849601976E-06

    ------------------------------------------------
       NWT REQUIRED            5 OUTER ITERATIONS 
       AND A TOTAL OF          7 INNER ITERATIONS.
    ------------------------------------------------

 NO OUTPUT CONTROL FOR STRESS PERIOD   43   TIME STEP    6
 
 WELLS WITH REDUCED PUMPING FOR STRESS PERIOD    43 TIME STEP     6
   LAY   ROW   COL         APPL.Q          ACT.Q        GW-HEAD       CELL-BOT
     1     3    50  -0.579967E+00  -0.318481E+00   0.596741E-03   0.000000E+00
     1     5    55  -0.579967E+00  -0.241179E+00   0.492464E-03   0.000000E+00
 
 
 SOLVING FOR HEAD 
                                                   Max.-Head-Change                         Max.-Flux-Residual
  Residual-Control   Outer-Iter.   Inner-Iter.     Column Row Layer    Maximum-Head-Change  Column Row Layer    Maximum-Flux-Residual          L2-NORM 
          0                 1           2             1    1     1      -0.6570011694E-02       1    1    1        -0.7730617452E-03      0.1074564788E-01
          0                 2           2             1    1     1       0.6275106658E-03       1    1    1         0.7730594254E-04      0.1045242203E-02
          0                 3           1             1    1     1      -0.5446111386E-04       1    1    1        -0.6957559478E-05      0.9744658579E-04
          0                 4           1             1    1     1       0.4241023267E-05       1    4    1        -0.5782270591E-06      0.8138627065E-05
          0                 5           1             1    1     1      -0.2917611781E-06       1    4    1         0.4983158775E-07      0.5901242470E-06

    ------------------------------------------------
       NWT REQUIRED            5 OUTER ITERATIONS 
       AND A TOTAL OF          7 INNER ITERATIONS.
    ------------------------------------------------

 NO OUTPUT CONTROL FOR STRESS PERIOD   43   TIME STEP    7
 
 WELLS WITH REDUCED PUMPING FOR STRESS PERIOD    43 TIME STEP     7
   LAY   ROW   COL         APPL.Q          ACT.Q        GW-HEAD       CELL-BOT
     1     3    50  -0.579933E+00  -0.318570E+00   0.596881E-03   0.000000E+00
     1     5    55  -0.579933E+00  -0.241255E+00   0.492581E-03   0.000000E+00
 
 
 SOLVING FOR HEAD 
                                                   Max.-Head-Change                         Max.-Flux-Residual
  Residual-Control   Outer-Iter.   Inner-Iter.     Column Row Layer    Maximum-Head-Change  Column Row Layer    Maximum-Flux-Residual          L2-NORM 
          0                 1           2             1    1     1      -0.7223024089E-02       1    1    1        -0.7728761364E-03      0.1073722332E-01
          0                 2           2             1    1     1       0.6876339209E-03       1    1    1         0.7728733659E-04      0.1045298286E-02
          0                 3           1             1    1     1      -0.5948905131E-04       1    1    1        -0.6955889477E-05      0.9761591723E-04
          0                 4           1             1    1     1       0.4619221676E-05       1    4    1        -0.5963312937E-06      0.8181083432E-05
          0                 5           1             1    1     1      -0.3170191578E-06       1    4    1         0.5188530139E-07      0.5954811814E-06

    ------------------------------------------------
       NWT REQUIRED            5 OUTER ITERATIONS 
       AND A TOTAL OF          7 INNER ITERATIONS.
    ------------------------------------------------

 NO OUTPUT CONTROL FOR STRESS PERIOD   43   TIME STEP    8
 
 WELLS WITH REDUCED PUMPING FOR STRESS PERIOD    43 TIME STEP     8
   LAY   ROW   COL         APPL.Q          ACT.Q        GW-HEAD       CELL-BOT
     1     3    50  -0.579948E+00  -0.318629E+00   0.596946E-03   0.000000E+00
     1     5    55  -0.579948E+00  -0.241315E+00   0.492649E-03   0.000000E+00
 
 
 SOLVING FOR HEAD 
                                                   Max.-Head-Change                         Max.-Flux-Residual
  Residual-Control   Outer-Iter.   Inner-Iter.     Column Row Layer    Maximum-Head-Change  Column Row Layer    Maximum-Flux-Residual          L2-NORM 
          0                 1           2             1    1     1      -0.7940694530E-02       1    1    1        -0.7726724500E-03      0.1073300553E-01
          0                 2           2             1    1     1       0.7534361965E-03       1    1    1         0.7726691569E-04      0.1045211742E-02
          0                 3           1             1    1     1      -0.6496351535E-04       1    1    1        -0.6954056840E-05      0.9776470668E-04
          0                 4           1             1    1     1       0.5028559606E-05       1    4    1        -0.6138768569E-06      0.8222201896E-05
          0                 5           1             1    1     1      -0.3441879627E-06       1    4    1         0.5390455371E-07      0.6008651189E-06

    ------------------------------------------------
       NWT REQUIRED            5 OUTER ITERATIONS 
       AND A TOTAL OF          7 INNER ITERATIONS.
    ------------------------------------------------

 NO OUTPUT CONTROL FOR STRESS PERIOD   43   TIME STEP    9
 
 WELLS WITH REDUCED PUMPING FOR STRESS PERIOD    43 TIME STEP     9
   LAY   ROW   COL         APPL.Q          ACT.Q        GW-HEAD       CELL-BOT
     1     3    50  -0.579976E+00  -0.318668E+00   0.596976E-03   0.000000E+00
     1     5    55  -0.579976E+00  -0.241363E+00   0.492697E-03   0.000000E+00
 
 
 SOLVING FOR HEAD 
                                                   Max.-Head-Change                         Max.-Flux-Residual
  Residual-Control   Outer-Iter.   Inner-Iter.     Column Row Layer    Maximum-Head-Change  Column Row Layer    Maximum-Flux-Residual          L2-NORM 
          0                 1           2             1    1     1      -0.8729395786E-02       1    1    1        -0.7724489419E-03      0.1073022830E-01
          0                 2           2             1    1     1       0.8254621878E-03       1    1    1         0.7724450458E-04      0.1045070422E-02
          0                 3           1             1    1     1      -0.7092511888E-04       1    1    1        -0.6952045858E-05      0.9789905169E-04
          0                 4           1             1    1     1       0.5471591794E-05       1    4    1        -0.6308235356E-06      0.8262245348E-05
          0                 5           1             1    1     1      -0.3733991711E-06       1    4    1         0.5588156782E-07      0.6062713573E-06

    ------------------------------------------------
       NWT REQUIRED            5 OUTER ITERATIONS 
       AND A TOTAL OF          7 INNER ITERATIONS.
    ------------------------------------------------

 NO OUTPUT CONTROL FOR STRESS PERIOD   43   TIME STEP   10
 
 WELLS WITH REDUCED PUMPING FOR STRESS PERIOD    43 TIME STEP    10
   LAY   ROW   COL         APPL.Q          ACT.Q        GW-HEAD       CELL-BOT
     1     3    50  -0.579951E+00  -0.318692E+00   0.597025E-03   0.000000E+00
     1     5    55  -0.579951E+00  -0.241404E+00   0.492763E-03   0.000000E+00
 
 
 SOLVING FOR HEAD 
                                                   Max.-Head-Change                         Max.-Flux-Residual
  Residual-Control   Outer-Iter.   Inner-Iter.     Column Row Layer    Maximum-Head-Change  Column Row Layer    Maximum-Flux-Residual          L2-NORM 
          0                 1           2             1    1     1      -0.9596120549E-02       1    1    1        -0.7722036893E-03      0.1072223461E-01
          0                 2           2             1    1     1       0.9043112196E-03       1    1    1         0.7721990998E-04      0.1044602427E-02
          0                 3           1             1    1     1      -0.7741868518E-04       1    1    1        -0.6949839243E-05      0.9801726027E-04
          0                 4           1             1    1     1       0.5951132220E-05       1    4    1        -0.6471356819E-06      0.8301379714E-05
          0                 5           1             1    1     1      -0.4047969766E-06       1    4    1         0.5780885814E-07      0.6117007770E-06

    ------------------------------------------------
       NWT REQUIRED            5 OUTER ITERATIONS 
       AND A TOTAL OF          7 INNER ITERATIONS.
    ------------------------------------------------

 NO OUTPUT CONTROL FOR STRESS PERIOD   43   TIME STEP   11
 
 WELLS WITH REDUCED PUMPING FOR STRESS PERIOD    43 TIME STEP    11
   LAY   ROW   COL         APPL.Q          ACT.Q        GW-HEAD       CELL-BOT
     1     3    50  -0.580019E+00  -0.318693E+00   0.596978E-03   0.000000E+00
     1     5    55  -0.580019E+00  -0.241421E+00   0.492749E-03   0.000000E+00
 
 
 SOLVING FOR HEAD 
                                                   Max.-Head-Change                         Max.-Flux-Residual
  Residual-Control   Outer-Iter.   Inner-Iter.     Column Row Layer    Maximum-Head-Change  Column Row Layer    Maximum-Flux-Residual          L2-NORM 
          0                 1           2             1    1     1      -0.1054854309E-01       1    1    1        -0.7719345740E-03      0.1071807786E-01
          0                 2           2             1    1     1       0.9906429308E-03       1    1    1         0.7719291905E-04      0.1044174448E-02
          0                 3           1             1    1     1      -0.8449371822E-04       1    1    1        -0.6947417926E-05      0.9812482873E-04
          0                 4           1             1    1     1       0.6470278325E-05       1    4    1        -0.6627820994E-06      0.8339086535E-05
          0                 5           1             1    1     1      -0.4385387457E-06       1    4    1         0.5967920558E-07      0.6170780714E-06

    ------------------------------------------------
       NWT REQUIRED            5 OUTER ITERATIONS 
       AND A TOTAL OF          7 INNER ITERATIONS.
    ------------------------------------------------

 NO OUTPUT CONTROL FOR STRESS PERIOD   43   TIME STEP   12
 
 WELLS WITH REDUCED PUMPING FOR STRESS PERIOD    43 TIME STEP    12
   LAY   ROW   COL         APPL.Q          ACT.Q        GW-HEAD       CELL-BOT
     1     3    50  -0.580029E+00  -0.318673E+00   0.596946E-03   0.000000E+00
     1     5    55  -0.580029E+00  -0.241431E+00   0.492756E-03   0.000000E+00
 
 
 SOLVING FOR HEAD 
                                                   Max.-Head-Change                         Max.-Flux-Residual
  Residual-Control   Outer-Iter.   Inner-Iter.     Column Row Layer    Maximum-Head-Change  Column Row Layer    Maximum-Flux-Residual          L2-NORM 
          0                 1           2             1    1     1      -0.1159508269E-01       1    1    1        -0.7716392644E-03      0.1071717515E-01
          0                 2           2             1    1     1       0.1085183077E-02       1    1    1         0.7716329748E-04      0.1044024340E-02
          0                 3           1             1    1     1      -0.9220487438E-04       1    1    1        -0.6944760916E-05      0.9824467670E-04
          0                 4           1             1    1     1       0.7032430762E-05       1    4    1        -0.6777356880E-06      0.8376764627E-05
          0                 5           1             1    1     1      -0.4747954700E-06       1    4    1         0.6148568232E-07      0.6224605679E-06

    ------------------------------------------------
       NWT REQUIRED            5 OUTER ITERATIONS 
       AND A TOTAL OF          7 INNER ITERATIONS.
    ------------------------------------------------

 NO OUTPUT CONTROL FOR STRESS PERIOD   43   TIME STEP   13
 
 WELLS WITH REDUCED PUMPING FOR STRESS PERIOD    43 TIME STEP    13
   LAY   ROW   COL         APPL.Q          ACT.Q        GW-HEAD       CELL-BOT
     1     3    50  -0.580029E+00  -0.318660E+00   0.596929E-03   0.000000E+00
     1     5    55  -0.580029E+00  -0.241447E+00   0.492777E-03   0.000000E+00
 
 
 SOLVING FOR HEAD 
                                                   Max.-Head-Change                         Max.-Flux-Residual
  Residual-Control   Outer-Iter.   Inner-Iter.     Column Row Layer    Maximum-Head-Change  Column Row Layer    Maximum-Flux-Residual          L2-NORM 
          0                 1           2             1    1     1      -0.1274497265E-01       1    1    1        -0.7713151942E-03      0.1070937148E-01
          0                 2           2             1    1     1       0.1188729793E-02       1    1    1         0.7713078736E-04      0.1043373709E-02
          0                 3           1             1    1     1      -0.1006124624E-03       1    1    1        -0.6941845113E-05      0.9833034303E-04
          0                 4           1             1    1     1       0.7641308266E-05       1    4    1        -0.6919730353E-06      0.8411651430E-05
          0                 5           1             1    1     1      -0.5137510125E-06       1    4    1         0.6322152402E-07      0.6276644233E-06

    ------------------------------------------------
       NWT REQUIRED            5 OUTER ITERATIONS 
       AND A TOTAL OF          7 INNER ITERATIONS.
    ------------------------------------------------

 NO OUTPUT CONTROL FOR STRESS PERIOD   43   TIME STEP   14
 
 WELLS WITH REDUCED PUMPING FOR STRESS PERIOD    43 TIME STEP    14
   LAY   ROW   COL         APPL.Q          ACT.Q        GW-HEAD       CELL-BOT
     1     3    50  -0.580012E+00  -0.318645E+00   0.596921E-03   0.000000E+00
     1     5    55  -0.580012E+00  -0.241466E+00   0.492811E-03   0.000000E+00
 
 
 SOLVING FOR HEAD 
                                                   Max.-Head-Change                         Max.-Flux-Residual
  Residual-Control   Outer-Iter.   Inner-Iter.     Column Row Layer    Maximum-Head-Change  Column Row Layer    Maximum-Flux-Residual          L2-NORM 
          0                 1           2             1    1     1      -0.1400833539E-01       1    1    1        -0.7709595384E-03      0.1070416259E-01
          0                 2           2             1    1     1       0.1302160359E-02       1    1    1         0.7709510483E-04      0.1042885556E-02
          0                 3           2             1    1     1      -0.1097882888E-03       1    1    1        -0.6938645084E-05      0.9841905298E-04
          0                 4           1             1    1     1       0.8306609437E-05       1    4    1        -0.7057278246E-06      0.8452347187E-05
          0                 5           1             1    1     1      -0.5559548071E-06       1    4    1         0.6492124882E-07      0.6332757521E-06

    ------------------------------------------------
       NWT REQUIRED            5 OUTER ITERATIONS 
       AND A TOTAL OF          8 INNER ITERATIONS.
    ------------------------------------------------

 NO OUTPUT CONTROL FOR STRESS PERIOD   43   TIME STEP   15
 
 WELLS WITH REDUCED PUMPING FOR STRESS PERIOD    43 TIME STEP    15
   LAY   ROW   COL         APPL.Q          ACT.Q        GW-HEAD       CELL-BOT
     1     3    50  -0.580012E+00  -0.318627E+00   0.596897E-03   0.000000E+00
     1     5    55  -0.580012E+00  -0.241484E+00   0.492834E-03   0.000000E+00
 
 
 SOLVING FOR HEAD 
                                                   Max.-Head-Change                         Max.-Flux-Residual
  Residual-Control   Outer-Iter.   Inner-Iter.     Column Row Layer    Maximum-Head-Change  Column Row Layer    Maximum-Flux-Residual          L2-NORM 
          0                 1           2             1    1     1      -0.1539626424E-01       1    1    1        -0.7705691890E-03      0.1070485078E-01
          0                 2           2             1    1     1       0.1426438505E-02       1    1    1         0.7705593757E-04      0.1042880111E-02
          0                 3           2             1    1     1      -0.1197982023E-03       1    1    1        -0.6935132857E-05      0.9853093228E-04
          0                 4           1             1    1     1       0.9024860495E-05       1    4    1        -0.7185817310E-06      0.8488360941E-05
          0                 5           1             1    1     1      -0.6011142916E-06       2    4    1         0.6652826912E-07      0.6384097075E-06

    ------------------------------------------------
       NWT REQUIRED            5 OUTER ITERATIONS 
       AND A TOTAL OF          8 INNER ITERATIONS.
    ------------------------------------------------

 NO OUTPUT CONTROL FOR STRESS PERIOD   43   TIME STEP   16
 
 WELLS WITH REDUCED PUMPING FOR STRESS PERIOD    43 TIME STEP    16
   LAY   ROW   COL         APPL.Q          ACT.Q        GW-HEAD       CELL-BOT
     1     3    50  -0.580012E+00  -0.318606E+00   0.596870E-03   0.000000E+00
     1     5    55  -0.580012E+00  -0.241503E+00   0.492858E-03   0.000000E+00
 
 
 SOLVING FOR HEAD 
                                                   Max.-Head-Change                         Max.-Flux-Residual
  Residual-Control   Outer-Iter.   Inner-Iter.     Column Row Layer    Maximum-Head-Change  Column Row Layer    Maximum-Flux-Residual          L2-NORM 
          0                 1           2             1    1     1      -0.1692091212E-01       1    1    1        -0.7701407211E-03      0.1069147276E-01
          0                 2           2             1    1     1       0.1562622279E-02       1    1    1         0.7701294142E-04      0.1041873010E-02
          0                 3           2             1    1     1      -0.1307265959E-03       1    1    1        -0.6931277589E-05      0.9858080622E-04
          0                 4           1             1    1     1       0.9804837806E-05       1    4    1        -0.7307069296E-06      0.8520273103E-05
          0                 5           1             1    1     1      -0.6496893573E-06       2    4    1         0.6806486397E-07      0.6431935036E-06

    ------------------------------------------------
       NWT REQUIRED            5 OUTER ITERATIONS 
       AND A TOTAL OF          8 INNER ITERATIONS.
    ------------------------------------------------

 NO OUTPUT CONTROL FOR STRESS PERIOD   43   TIME STEP   17
 
 WELLS WITH REDUCED PUMPING FOR STRESS PERIOD    43 TIME STEP    17
   LAY   ROW   COL         APPL.Q          ACT.Q        GW-HEAD       CELL-BOT
     1     3    50  -0.580025E+00  -0.318579E+00   0.596827E-03   0.000000E+00
     1     5    55  -0.580025E+00  -0.241521E+00   0.492874E-03   0.000000E+00
 
 
 SOLVING FOR HEAD 
                                                   Max.-Head-Change                         Max.-Flux-Residual
  Residual-Control   Outer-Iter.   Inner-Iter.     Column Row Layer    Maximum-Head-Change  Column Row Layer    Maximum-Flux-Residual          L2-NORM 
          0                 1           2             1    1     1      -0.1859558393E-01       1    1    1        -0.7696703666E-03      0.1068810163E-01
          0                 2           2             1    1     1       0.1711872190E-02       1    1    1         0.7696573774E-04      0.1041518559E-02
          0                 3           2             1    1     1      -0.1426627628E-03       1    1    1        -0.6927045346E-05      0.9868035584E-04
          0                 4           1             1    1     1       0.1065240789E-04       1    4    1        -0.7421023618E-06      0.8556246693E-05
          0                 5           1             1    1     1      -0.7019296864E-06       2    4    1         0.6952319964E-07      0.6481408688E-06

    ------------------------------------------------
       NWT REQUIRED            5 OUTER ITERATIONS 
       AND A TOTAL OF          8 INNER ITERATIONS.
    ------------------------------------------------

 NO OUTPUT CONTROL FOR STRESS PERIOD   43   TIME STEP   18
 
 WELLS WITH REDUCED PUMPING FOR STRESS PERIOD    43 TIME STEP    18
   LAY   ROW   COL         APPL.Q          ACT.Q        GW-HEAD       CELL-BOT
     1     3    50  -0.580019E+00  -0.318509E+00   0.596740E-03   0.000000E+00
     1     5    55  -0.580019E+00  -0.241498E+00   0.492848E-03   0.000000E+00
 
 
 SOLVING FOR HEAD 
                                                   Max.-Head-Change                         Max.-Flux-Residual
  Residual-Control   Outer-Iter.   Inner-Iter.     Column Row Layer    Maximum-Head-Change  Column Row Layer    Maximum-Flux-Residual          L2-NORM 
          0                 1           2             1    1     1      -0.2043483990E-01       1    1    1        -0.7691539758E-03      0.1067656975E-01
          0                 2           2             1    1     1       0.1875460255E-02       1    1    1         0.7691390949E-04      0.1040424618E-02
          0                 3           2             1    1     1      -0.1557048593E-03       1    1    1        -0.6922398759E-05      0.9869508040E-04
          0                 4           1             1    1     1       0.1157402275E-04       1    4    1        -0.7527705854E-06      0.8583229483E-05
          0                 5           1             1    1     1      -0.7580818868E-06       2    4    1         0.7090145715E-07      0.6522211019E-06

    ------------------------------------------------
       NWT REQUIRED            5 OUTER ITERATIONS 
       AND A TOTAL OF          8 INNER ITERATIONS.
    ------------------------------------------------

 NO OUTPUT CONTROL FOR STRESS PERIOD   43   TIME STEP   19
 
 WELLS WITH REDUCED PUMPING FOR STRESS PERIOD    43 TIME STEP    19
   LAY   ROW   COL         APPL.Q          ACT.Q        GW-HEAD       CELL-BOT
     1     3    50  -0.579987E+00  -0.318449E+00   0.596685E-03   0.000000E+00
     1     5    55  -0.579987E+00  -0.241495E+00   0.492862E-03   0.000000E+00
 
 
 SOLVING FOR HEAD 
                                                   Max.-Head-Change                         Max.-Flux-Residual
  Residual-Control   Outer-Iter.   Inner-Iter.     Column Row Layer    Maximum-Head-Change  Column Row Layer    Maximum-Flux-Residual          L2-NORM 
          0                 1           2             1    1     1      -0.2241238574E-01       1    1    1        -0.7685869798E-03      0.1061157975E-01
          0                 2           2             1    1     1       0.2042540471E-02       1    1    1         0.7685658329E-04      0.1048821982E-02
          0                 3           2             1    1     1      -0.1685533088E-03       5    4    1         0.9322633769E-05      0.1013213974E-03
          0                 4           1             1    1     1       0.1246458723E-04       5    4    1        -0.1067712894E-05      0.8908366147E-05
          0                 5           1             1    1     1      -0.8119003875E-06       4    4    1         0.9152704550E-07      0.6787085128E-06

    ------------------------------------------------
       NWT REQUIRED            5 OUTER ITERATIONS 
       AND A TOTAL OF          8 INNER ITERATIONS.
    ------------------------------------------------

 NO OUTPUT CONTROL FOR STRESS PERIOD   43   TIME STEP   20
 
 WELLS WITH REDUCED PUMPING FOR STRESS PERIOD    43 TIME STEP    20
   LAY   ROW   COL         APPL.Q          ACT.Q        GW-HEAD       CELL-BOT
     1     3    50  -0.579983E+00  -0.318390E+00   0.596613E-03   0.000000E+00
     1     5    55  -0.579983E+00  -0.241500E+00   0.492870E-03   0.000000E+00
 
 
 SOLVING FOR HEAD 
                                                   Max.-Head-Change                         Max.-Flux-Residual
  Residual-Control   Outer-Iter.   Inner-Iter.     Column Row Layer    Maximum-Head-Change  Column Row Layer    Maximum-Flux-Residual          L2-NORM 
          0                 1           2             1    1     1      -0.2393123633E-01       1    1    1        -0.7667957643E-03      0.1047397419E-01
          0                 2           2             1    1     1       0.2137730173E-02       1    1    1         0.7667099080E-04      0.1038878237E-02
          0                 3           2             1    1     1      -0.1736232936E-03       3    4    1         0.9602928856E-05      0.1010769691E-03
          0                 4           1             1    1     1       0.1269774816E-04       3    4    1        -0.1084021193E-05      0.8943572822E-05
          0                 5           1             1    1     1      -0.8212135878E-06       2    4    1         0.9266499390E-07      0.6835703558E-06

    ------------------------------------------------
       NWT REQUIRED            5 OUTER ITERATIONS 
       AND A TOTAL OF          8 INNER ITERATIONS.
    ------------------------------------------------

 NO OUTPUT CONTROL FOR STRESS PERIOD   43   TIME STEP   21
 
 WELLS WITH REDUCED PUMPING FOR STRESS PERIOD    43 TIME STEP    21
   LAY   ROW   COL         APPL.Q          ACT.Q        GW-HEAD       CELL-BOT
     1     3    50  -0.580000E+00  -0.318322E+00   0.596513E-03   0.000000E+00
     1     5    55  -0.580000E+00  -0.241500E+00   0.492861E-03   0.000000E+00
 
 
 SOLVING FOR HEAD 
                                                   Max.-Head-Change                         Max.-Flux-Residual
  Residual-Control   Outer-Iter.   Inner-Iter.     Column Row Layer    Maximum-Head-Change  Column Row Layer    Maximum-Flux-Residual          L2-NORM 
          0                 1           2             1    1     1      -0.2555879083E-01       1    1    1        -0.7455989843E-03      0.1035593227E-01
          0                 2           2             1    1     1       0.2269449085E-02       1    1    1         0.7455065204E-04      0.1023757777E-02
          0                 3           2             1    1     1      -0.1830561395E-03      16    4    1         0.8962278914E-05      0.9990124015E-04
          0                 4           1            19    7     1       0.1340529625E-04       1    4    1        -0.1044752604E-05      0.8886720754E-05
          0                 5           1            19    7     1      -0.8618863710E-06       1    4    1         0.9064248374E-07      0.6815295319E-06

    ------------------------------------------------
       NWT REQUIRED            5 OUTER ITERATIONS 
       AND A TOTAL OF          8 INNER ITERATIONS.
    ------------------------------------------------

 NO OUTPUT CONTROL FOR STRESS PERIOD   43   TIME STEP   22
 
 WELLS WITH REDUCED PUMPING FOR STRESS PERIOD    43 TIME STEP    22
   LAY   ROW   COL         APPL.Q          ACT.Q        GW-HEAD       CELL-BOT
     1     3    50  -0.579996E+00  -0.318247E+00   0.596418E-03   0.000000E+00
     1     5    55  -0.579996E+00  -0.241499E+00   0.492862E-03   0.000000E+00
 
 
 SOLVING FOR HEAD 
                                                   Max.-Head-Change                         Max.-Flux-Residual
  Residual-Control   Outer-Iter.   Inner-Iter.     Column Row Layer    Maximum-Head-Change  Column Row Layer    Maximum-Flux-Residual          L2-NORM 
          0                 1           2             3    1     1      -0.2764867963E-01       1    1    1        -0.7242716137E-03      0.1023413987E-01
          0                 2           2             3    1     1       0.2443435536E-02       1    1    1         0.7242008783E-04      0.1017455344E-02
          0                 3           2             3    1     1      -0.1958899727E-03      18    4    1         0.9120852106E-05      0.9982749740E-04
          0                 4           1             3    1     1       0.1410957207E-04      18    4    1        -0.1027600572E-05      0.8918959041E-05
          0                 5           1             1    1     1      -0.8915893328E-06       2    4    1         0.8903874260E-07      0.6849195736E-06

    ------------------------------------------------
       NWT REQUIRED            5 OUTER ITERATIONS 
       AND A TOTAL OF          8 INNER ITERATIONS.
    ------------------------------------------------

 NO OUTPUT CONTROL FOR STRESS PERIOD   43   TIME STEP   23
 
 WELLS WITH REDUCED PUMPING FOR STRESS PERIOD    43 TIME STEP    23
   LAY   ROW   COL         APPL.Q          ACT.Q        GW-HEAD       CELL-BOT
     1     3    50  -0.580010E+00  -0.318121E+00   0.596244E-03   0.000000E+00
     1     5    55  -0.580010E+00  -0.241455E+00   0.492797E-03   0.000000E+00
 
 
 SOLVING FOR HEAD 
                                                   Max.-Head-Change                         Max.-Flux-Residual
  Residual-Control   Outer-Iter.   Inner-Iter.     Column Row Layer    Maximum-Head-Change  Column Row Layer    Maximum-Flux-Residual          L2-NORM 
          0                 1           2             3    1     1      -0.3024731406E-01       3    1    1        -0.7125388016E-03      0.1011480702E-01
          0                 2           2             3    1     1       0.2660178220E-02       3    1    1         0.7124966994E-04      0.1000369078E-02
          0                 3           2             3    1     1      -0.2119418226E-03      19    4    1         0.8646856028E-05      0.9825035470E-04
          0                 4           1             3    1     1       0.1514741909E-04      19    4    1        -0.9901268232E-06      0.8816885059E-05
          0                 5           1             1    1     1      -0.9442790480E-06       2    4    1         0.8841201904E-07      0.6785351001E-06

    ------------------------------------------------
       NWT REQUIRED            5 OUTER ITERATIONS 
       AND A TOTAL OF          8 INNER ITERATIONS.
    ------------------------------------------------

 NO OUTPUT CONTROL FOR STRESS PERIOD   43   TIME STEP   24
 
 WELLS WITH REDUCED PUMPING FOR STRESS PERIOD    43 TIME STEP    24
   LAY   ROW   COL         APPL.Q          ACT.Q        GW-HEAD       CELL-BOT
     1     3    50  -0.579997E+00  -0.318001E+00   0.596099E-03   0.000000E+00
     1     5    55  -0.579997E+00  -0.241427E+00   0.492769E-03   0.000000E+00
 
 
 SOLVING FOR HEAD 
                                                   Max.-Head-Change                         Max.-Flux-Residual
  Residual-Control   Outer-Iter.   Inner-Iter.     Column Row Layer    Maximum-Head-Change  Column Row Layer    Maximum-Flux-Residual          L2-NORM 
          0                 1           2             2    1     1      -0.3319508092E-01       3    1    1        -0.7089199633E-03      0.1003915966E-01
          0                 2           2             3    1     1       0.2909630353E-02       3    1    1         0.7088823909E-04      0.9917844406E-03
          0                 3           2             3    1     1      -0.2307310916E-03      21    4    1         0.8670795337E-05      0.9763369985E-04
          0                 4           1             3    1     1       0.1638488050E-04      21    4    1        -0.9892535768E-06      0.8796761309E-05
          0                 5           1             1    1     1      -0.1008467355E-05       2    4    1         0.8967250054E-07      0.6773148773E-06
          0                 6           1             1    1     1       0.5477015187E-07       2    4    1        -0.6337671721E-08      0.4403521457E-07

    ------------------------------------------------
       NWT REQUIRED            6 OUTER ITERATIONS 
       AND A TOTAL OF          9 INNER ITERATIONS.
    ------------------------------------------------

 NO OUTPUT CONTROL FOR STRESS PERIOD   43   TIME STEP   25
 
 WELLS WITH REDUCED PUMPING FOR STRESS PERIOD    43 TIME STEP    25
   LAY   ROW   COL         APPL.Q          ACT.Q        GW-HEAD       CELL-BOT
     1     3    50  -0.580006E+00  -0.317883E+00   0.595940E-03   0.000000E+00
     1     5    55  -0.580006E+00  -0.241410E+00   0.492742E-03   0.000000E+00
 
 
 SOLVING FOR HEAD 
                                                   Max.-Head-Change                         Max.-Flux-Residual
  Residual-Control   Outer-Iter.   Inner-Iter.     Column Row Layer    Maximum-Head-Change  Column Row Layer    Maximum-Flux-Residual          L2-NORM 
          0                 1           2             1    1     1      -0.3624478882E-01       2    7    1        -0.7074758684E-03      0.9951830792E-02
          0                 2           2             1    1     1       0.3164622349E-02       3    7    1         0.7073997282E-04      0.9866875018E-03
          0                 3           2             1    1     1      -0.2497294945E-03      22    4    1         0.8330482904E-05      0.9753761657E-04
          0                 4           1             1    1     1       0.1762624095E-04       3    4    1        -0.1019950826E-05      0.8821124465E-05
          0                 5           1             1    1     1      -0.1070733804E-05       2    4    1         0.9217959018E-07      0.6786196329E-06
          0                 6           1             1    1     1       0.5756395056E-07       2    4    1        -0.6498336091E-08      0.4410003414E-07

    ------------------------------------------------
       NWT REQUIRED            6 OUTER ITERATIONS 
       AND A TOTAL OF          9 INNER ITERATIONS.
    ------------------------------------------------

 NO OUTPUT CONTROL FOR STRESS PERIOD   43   TIME STEP   26
 
 WELLS WITH REDUCED PUMPING FOR STRESS PERIOD    43 TIME STEP    26
   LAY   ROW   COL         APPL.Q          ACT.Q        GW-HEAD       CELL-BOT
     1     3    50  -0.580003E+00  -0.317756E+00   0.595778E-03   0.000000E+00
     1     5    55  -0.580003E+00  -0.241394E+00   0.492722E-03   0.000000E+00
 
 
 SOLVING FOR HEAD 
                                                   Max.-Head-Change                         Max.-Flux-Residual
  Residual-Control   Outer-Iter.   Inner-Iter.     Column Row Layer    Maximum-Head-Change  Column Row Layer    Maximum-Flux-Residual          L2-NORM 
          0                 1           3             1    1     1      -0.3915322673E-01       1    7    1        -0.7024610070E-03      0.9811963752E-02
          0                 2           2             1    1     1       0.3412376905E-02       1    7    1         0.7023602046E-04      0.9813755479E-03
          0                 3           2             1    1     1      -0.2684608903E-03       1    4    1         0.8538661678E-05      0.9754319377E-04
          0                 4           1             1    1     1       0.1885545386E-04       1    4    1        -0.1039292830E-05      0.8847606001E-05
          0                 5           1             1    1     1      -0.1127770895E-05       2    4    1         0.9340441665E-07      0.6788051672E-06
          0                 6           1             1    1     1       0.5997257848E-07       2    4    1        -0.6566143185E-08      0.4403577439E-07

    ------------------------------------------------
       NWT REQUIRED            6 OUTER ITERATIONS 
       AND A TOTAL OF         10 INNER ITERATIONS.
    ------------------------------------------------

 NO OUTPUT CONTROL FOR STRESS PERIOD   43   TIME STEP   27
 
 WELLS WITH REDUCED PUMPING FOR STRESS PERIOD    43 TIME STEP    27
   LAY   ROW   COL         APPL.Q          ACT.Q        GW-HEAD       CELL-BOT
     1     3    50  -0.580001E+00  -0.317614E+00   0.595597E-03   0.000000E+00
     1     5    55  -0.580001E+00  -0.241375E+00   0.492698E-03   0.000000E+00
 
 
 SOLVING FOR HEAD 
                                                   Max.-Head-Change                         Max.-Flux-Residual
  Residual-Control   Outer-Iter.   Inner-Iter.     Column Row Layer    Maximum-Head-Change  Column Row Layer    Maximum-Flux-Residual          L2-NORM 
          0                 1           3             1    1     1      -0.4285793038E-01       1    7    1        -0.6899415686E-03      0.9676182994E-02
          0                 2           2             1    1     1       0.3719621516E-02       1    7    1         0.6898822688E-04      0.9606101971E-03
          0                 3           2             1    1     1      -0.2909682581E-03      25    4    1         0.8845703764E-05      0.9542794622E-04
          0                 4           1             1    1     1       0.2027131276E-04       1    4    1        -0.1000748561E-05      0.8687230030E-05
          0                 5           1             1    1     1      -0.1184347658E-05       2    4    1         0.9148423175E-07      0.6650640325E-06
          0                 6           1             1    1     1       0.6193066309E-07       2    4    1        -0.6464752289E-08      0.4312047933E-07

    ------------------------------------------------
       NWT REQUIRED            6 OUTER ITERATIONS 
       AND A TOTAL OF         10 INNER ITERATIONS.
    ------------------------------------------------

 NO OUTPUT CONTROL FOR STRESS PERIOD   43   TIME STEP   28
 
 WELLS WITH REDUCED PUMPING FOR STRESS PERIOD    43 TIME STEP    28
   LAY   ROW   COL         APPL.Q          ACT.Q        GW-HEAD       CELL-BOT
     1     3    50  -0.579990E+00  -0.317457E+00   0.595401E-03   0.000000E+00
     1     5    55  -0.579990E+00  -0.241352E+00   0.492675E-03   0.000000E+00
 
 
 SOLVING FOR HEAD 
                                                   Max.-Head-Change                         Max.-Flux-Residual
  Residual-Control   Outer-Iter.   Inner-Iter.     Column Row Layer    Maximum-Head-Change  Column Row Layer    Maximum-Flux-Residual          L2-NORM 
          0                 1           3             1    1     1      -0.4703937461E-01       1    7    1        -0.6867951880E-03      0.9579434016E-02
          0                 2           2             1    1     1       0.4071921011E-02       1    7    1         0.6867402852E-04      0.9488771934E-03
          0                 3           2             1    1     1      -0.3172800029E-03       1    4    1         0.7959126002E-05      0.9438852174E-04
          0                 4           1             1    1     1       0.2196334755E-04       1    4    1        -0.1006138408E-05      0.8621689803E-05
          0                 5           1             1    1     1      -0.1250871111E-05       2    4    1         0.9228167741E-07      0.6570912065E-06
          0                 6           1             1    1     1       0.6437783945E-07       2    4    1        -0.6511530870E-08      0.4250953882E-07

    ------------------------------------------------
       NWT REQUIRED            6 OUTER ITERATIONS 
       AND A TOTAL OF         10 INNER ITERATIONS.
    ------------------------------------------------

 NO OUTPUT CONTROL FOR STRESS PERIOD   43   TIME STEP   29
 
 WELLS WITH REDUCED PUMPING FOR STRESS PERIOD    43 TIME STEP    29
   LAY   ROW   COL         APPL.Q          ACT.Q        GW-HEAD       CELL-BOT
     1     3    50  -0.580006E+00  -0.317295E+00   0.595181E-03   0.000000E+00
     1     5    55  -0.580006E+00  -0.241337E+00   0.492647E-03   0.000000E+00
 
 
 SOLVING FOR HEAD 
                                                   Max.-Head-Change                         Max.-Flux-Residual
  Residual-Control   Outer-Iter.   Inner-Iter.     Column Row Layer    Maximum-Head-Change  Column Row Layer    Maximum-Flux-Residual          L2-NORM 
          0                 1           3             4    4     1      -0.5273213592E-01       1    7    1        -0.6854139461E-03      0.9580196747E-02
          0                 2           2             3    1     1       0.4553110477E-02       1    7    1         0.6854310202E-04      0.9371480822E-03
          0                 3           2             3    1     1      -0.3545922217E-03      28    4    1         0.7741069435E-05      0.9263387436E-04
          0                 4           1             3    1     1       0.2442881078E-04       1    4    1        -0.9530424201E-06      0.8469962257E-05
          0                 5           1             1    1     1      -0.1344121625E-05       2    4    1         0.8900576276E-07      0.6407452251E-06
          0                 6           1             1    1     1       0.6763190445E-07       2    4    1        -0.6333500835E-08      0.4134533344E-07

    ------------------------------------------------
       NWT REQUIRED            6 OUTER ITERATIONS 
       AND A TOTAL OF         10 INNER ITERATIONS.
    ------------------------------------------------

 NO OUTPUT CONTROL FOR STRESS PERIOD   43   TIME STEP   30
 
 WELLS WITH REDUCED PUMPING FOR STRESS PERIOD    43 TIME STEP    30
   LAY   ROW   COL         APPL.Q          ACT.Q        GW-HEAD       CELL-BOT
     1     3    50  -0.580134E+00  -0.317172E+00   0.594931E-03   0.000000E+00
     1     5    55  -0.580134E+00  -0.241376E+00   0.492628E-03   0.000000E+00
 



 STREAM LISTING     PERIOD     43   STEP       30

 LAYER ROW COL. STREAM  RCH.   FLOW INTO    STREAM     FLOW OUT OF   OVRLND.    DIRECT     STREAM      STREAM      STREAM     STREAM  STREAMBED   FLOW TO   CHNG. UNSAT. 
                SEG.NO.  NO.   STRM. RCH.    LOSS       STRM. RCH.   RUNOFF     PRECIP       ET         HEAD        DEPTH      WIDTH  CONDCTNC.   WAT. TAB.

   1    4    1     1     1    9.9800E+00  2.9569E-03   9.9770E+00  0.000E+00  0.000E+00  0.000E+00  1.42254E+02  2.404E+00  4.689E+00  1.018E-03  3.119E-03 -1.616E-04
   1    4    2     1     2    9.9770E+00  2.9562E-03   9.9741E+00  0.000E+00  0.000E+00  0.000E+00  1.41954E+02  2.404E+00  4.688E+00  1.018E-03  3.107E-03 -1.508E-04
   1    4    3     1     3    9.9741E+00  2.9555E-03   9.9711E+00  0.000E+00  0.000E+00  0.000E+00  1.41653E+02  2.403E+00  4.688E+00  1.018E-03  3.097E-03 -1.418E-04
   1    4    4     1     4    9.9711E+00  2.9548E-03   9.9682E+00  0.000E+00  0.000E+00  0.000E+00  1.41353E+02  2.403E+00  4.688E+00  1.018E-03  3.089E-03 -1.345E-04
   1    4    5     1     5    9.9682E+00  2.9541E-03   9.9652E+00  0.000E+00  0.000E+00  0.000E+00  1.41053E+02  2.403E+00  4.687E+00  1.018E-03  3.083E-03 -1.291E-04
   1    4    6     1     6    9.9652E+00  2.9534E-03   9.9623E+00  0.000E+00  0.000E+00  0.000E+00  1.40752E+02  2.402E+00  4.687E+00  1.018E-03  3.079E-03 -1.255E-04
   1    4    7     1     7    9.9623E+00  2.9527E-03   9.9593E+00  0.000E+00  0.000E+00  0.000E+00  1.40452E+02  2.402E+00  4.686E+00  1.017E-03  3.076E-03 -1.237E-04
   1    4    8     1     8    9.9593E+00  2.9520E-03   9.9564E+00  0.000E+00  0.000E+00  0.000E+00  1.40152E+02  2.402E+00  4.686E+00  1.017E-03  3.076E-03 -1.238E-04
   1    4    9     1     9    9.9564E+00  2.9513E-03   9.9534E+00  0.000E+00  0.000E+00  0.000E+00  1.39851E+02  2.401E+00  4.685E+00  1.017E-03  3.077E-03 -1.258E-04
   1    4   10     1    10    9.9534E+00  2.9506E-03   9.9505E+00  0.000E+00  0.000E+00  0.000E+00  1.39551E+02  2.401E+00  4.685E+00  1.017E-03  3.080E-03 -1.297E-04
   1    4   11     1    11    9.9505E+00  2.9499E-03   9.9475E+00  0.000E+00  0.000E+00  0.000E+00  1.39251E+02  2.401E+00  4.685E+00  1.017E-03  3.085E-03 -1.354E-04
   1    4   12     1    12    9.9475E+00  2.9492E-03   9.9446E+00  0.000E+00  0.000E+00  0.000E+00  1.38950E+02  2.400E+00  4.684E+00  1.017E-03  3.092E-03 -1.431E-04
   1    4   13     1    13    9.9446E+00  2.9485E-03   9.9416E+00  0.000E+00  0.000E+00  0.000E+00  1.38650E+02  2.400E+00  4.684E+00  1.017E-03  3.101E-03 -1.527E-04
   1    4   14     1    14    9.9416E+00  2.9478E-03   9.9387E+00  0.000E+00  0.000E+00  0.000E+00  1.38349E+02  2.399E+00  4.683E+00  1.017E-03  3.112E-03 -1.642E-04
   1    4   15     1    15    9.9387E+00  2.9470E-03   9.9357E+00  0.000E+00  0.000E+00  0.000E+00  1.38049E+02  2.399E+00  4.683E+00  1.017E-03  3.125E-03 -1.777E-04
   1    4   16     1    16    9.9357E+00  2.9463E-03   9.9328E+00  0.000E+00  0.000E+00  0.000E+00  1.37749E+02  2.399E+00  4.682E+00  1.016E-03  3.140E-03 -1.932E-04
   1    4   17     1    17    9.9328E+00  2.9456E-03   9.9298E+00  0.000E+00  0.000E+00  0.000E+00  1.37448E+02  2.398E+00  4.682E+00  1.016E-03  3.157E-03 -2.109E-04
   1    4   18     1    18    9.9298E+00  2.9449E-03   9.9269E+00  0.000E+00  0.000E+00  0.000E+00  1.37148E+02  2.398E+00  4.682E+00  1.016E-03  3.176E-03 -2.306E-04
   1    4   19     1    19    9.9269E+00  2.9442E-03   9.9239E+00  0.000E+00  0.000E+00  0.000E+00  1.36848E+02  2.398E+00  4.681E+00  1.016E-03  3.187E-03 -2.424E-04
   1    4   20     1    20    9.9239E+00  2.9435E-03   9.9210E+00  0.000E+00  0.000E+00  0.000E+00  1.36547E+02  2.397E+00  4.681E+00  1.016E-03  3.187E-03 -2.430E-04
   1    4   21     1    21    9.9210E+00  2.9428E-03   9.9181E+00  0.000E+00  0.000E+00  0.000E+00  1.36247E+02  2.397E+00  4.680E+00  1.016E-03  3.186E-03 -2.437E-04
   1    4   22     1    22    9.9181E+00  2.9421E-03   9.9151E+00  0.000E+00  0.000E+00  0.000E+00  1.35947E+02  2.397E+00  4.680E+00  1.016E-03  3.186E-03 -2.443E-04
   1    4   23     1    23    9.9151E+00  2.9414E-03   9.9122E+00  0.000E+00  0.000E+00  0.000E+00  1.35646E+02  2.396E+00  4.679E+00  1.016E-03  3.186E-03 -2.451E-04
   1    4   24     1    24    9.9122E+00  2.9407E-03   9.9092E+00  0.000E+00  0.000E+00  0.000E+00  1.35346E+02  2.396E+00  4.679E+00  1.015E-03  3.187E-03 -2.459E-04
   1    4   25     1    25    9.9092E+00  2.9400E-03   9.9063E+00  0.000E+00  0.000E+00  0.000E+00  1.35046E+02  2.396E+00  4.679E+00  1.015E-03  3.187E-03 -2.467E-04
   1    4   26     1    26    9.9063E+00  2.9393E-03   9.9033E+00  0.000E+00  0.000E+00  0.000E+00  1.34745E+02  2.395E+00  4.678E+00  1.015E-03  3.187E-03 -2.477E-04
   1    4   27     1    27    9.9033E+00  2.9386E-03   9.9004E+00  0.000E+00  0.000E+00  0.000E+00  1.34445E+02  2.395E+00  4.678E+00  1.015E-03  3.188E-03 -2.492E-04
   1    4   28     1    28    9.9004E+00  2.9379E-03   9.8975E+00  0.000E+00  0.000E+00  0.000E+00  1.34144E+02  2.394E+00  4.677E+00  1.015E-03  3.159E-03 -2.212E-04
   1    4   29     1    29    9.8975E+00  2.9372E-03   9.8945E+00  0.000E+00  0.000E+00  0.000E+00  1.33844E+02  2.394E+00  4.677E+00  1.015E-03  2.967E-03 -2.988E-05
   1    4   30     1    30    9.8945E+00  2.9365E-03   9.8916E+00  0.000E+00  0.000E+00  0.000E+00  1.33544E+02  2.394E+00  4.676E+00  1.015E-03  2.919E-03  1.782E-05
   1    4   31     1    31    9.8916E+00  2.9358E-03   9.8887E+00  0.000E+00  0.000E+00  0.000E+00  1.33243E+02  2.393E+00  4.676E+00  1.015E-03  2.919E-03  1.706E-05
   1    4   32     1    32    9.8887E+00  2.9351E-03   9.8857E+00  0.000E+00  0.000E+00  0.000E+00  1.32943E+02  2.393E+00  4.676E+00  1.015E-03  2.919E-03  1.603E-05
   1    4   33     1    33    9.8857E+00  2.9344E-03   9.8828E+00  0.000E+00  0.000E+00  0.000E+00  1.32643E+02  2.393E+00  4.675E+00  1.014E-03  2.920E-03  1.481E-05
   1    4   34     1    34    9.8828E+00  2.9336E-03   9.8799E+00  0.000E+00  0.000E+00  0.000E+00  1.32342E+02  2.392E+00  4.675E+00  1.014E-03  2.920E-03  1.336E-05
   1    4   35     1    35    9.8799E+00  2.9329E-03   9.8769E+00  0.000E+00  0.000E+00  0.000E+00  1.32042E+02  2.392E+00  4.674E+00  1.014E-03  2.921E-03  1.178E-05
   1    4   36     1    36    9.8769E+00  2.9322E-03   9.8740E+00  0.000E+00  0.000E+00  0.000E+00  1.31742E+02  2.392E+00  4.674E+00  1.014E-03  2.922E-03  1.012E-05
   1    4   37     1    37    9.8740E+00  2.9315E-03   9.8711E+00  0.000E+00  0.000E+00  0.000E+00  1.31441E+02  2.391E+00  4.673E+00  1.014E-03  2.923E-03  8.396E-06
   1    4   38     1    38    9.8711E+00  2.9308E-03   9.8681E+00  0.000E+00  0.000E+00  0.000E+00  1.31141E+02  2.391E+00  4.673E+00  1.014E-03  2.919E-03  1.149E-05
   1    4   39     1    39    9.8681E+00  2.9301E-03   9.8652E+00  0.000E+00  0.000E+00  0.000E+00  1.30840E+02  2.390E+00  4.673E+00  1.014E-03  2.892E-03  3.779E-05
   1    4   40     1    40    9.8652E+00  2.9294E-03   9.8623E+00  0.000E+00  0.000E+00  0.000E+00  1.30540E+02  2.390E+00  4.672E+00  1.014E-03  2.863E-03  6.608E-05
   1    4   41     1    41    9.8623E+00  2.9287E-03   9.8593E+00  0.000E+00  0.000E+00  0.000E+00  1.30240E+02  2.390E+00  4.672E+00  1.013E-03  2.832E-03  9.654E-05
   1    4   42     1    42    9.8593E+00  2.9280E-03   9.8564E+00  0.000E+00  0.000E+00  0.000E+00  1.29939E+02  2.389E+00  4.671E+00  1.013E-03  2.807E-03  1.208E-04
   1    4   43     1    43    9.8564E+00  2.9273E-03   9.8535E+00  0.000E+00  0.000E+00  0.000E+00  1.29639E+02  2.389E+00  4.671E+00  1.013E-03  2.808E-03  1.189E-04
   1    4   44     1    44    9.8535E+00  2.9266E-03   9.8506E+00  0.000E+00  0.000E+00  0.000E+00  1.29339E+02  2.389E+00  4.670E+00  1.013E-03  2.810E-03  1.169E-04
   1    4   45     1    45    9.8506E+00  2.9259E-03   9.8476E+00  0.000E+00  0.000E+00  0.000E+00  1.29038E+02  2.388E+00  4.670E+00  1.013E-03  2.811E-03  1.148E-04
   1    4   46     1    46    9.8476E+00  2.9252E-03   9.8447E+00  0.000E+00  0.000E+00  0.000E+00  1.28738E+02  2.388E+00  4.670E+00  1.013E-03  2.813E-03  1.125E-04
   1    4   47     1    47    9.8447E+00  2.9245E-03   9.8418E+00  0.000E+00  0.000E+00  0.000E+00  1.28438E+02  2.388E+00  4.669E+00  1.013E-03  2.814E-03  1.101E-04
   1    4   48     1    48    9.8418E+00  2.9238E-03   9.8389E+00  0.000E+00  0.000E+00  0.000E+00  1.28137E+02  2.387E+00  4.669E+00  1.013E-03  2.816E-03  1.073E-04
   1    4   49     1    49    9.8389E+00  2.9231E-03   9.8359E+00  0.000E+00  0.000E+00  0.000E+00  1.27837E+02  2.387E+00  4.668E+00  1.013E-03  2.819E-03  1.038E-04
   1    4   50     1    50    9.8359E+00  2.9224E-03   9.8330E+00  0.000E+00  0.000E+00  0.000E+00  1.27537E+02  2.387E+00  4.668E+00  1.012E-03  2.815E-03  1.077E-04
   1    4   51     1    51    9.8330E+00  2.9217E-03   9.8301E+00  0.000E+00  0.000E+00  0.000E+00  1.27236E+02  2.386E+00  4.667E+00  1.012E-03  2.826E-03  9.607E-05
   1    4   52     1    52    9.8301E+00  2.9210E-03   9.8272E+00  0.000E+00  0.000E+00  0.000E+00  1.26936E+02  2.386E+00  4.667E+00  1.012E-03  2.827E-03  9.433E-05
   1    4   53     1    53    9.8272E+00  2.9203E-03   9.8243E+00  0.000E+00  0.000E+00  0.000E+00  1.26635E+02  2.385E+00  4.667E+00  1.012E-03  2.827E-03  9.367E-05
   1    4   54     1    54    9.8243E+00  2.9196E-03   9.8213E+00  0.000E+00  0.000E+00  0.000E+00  1.26335E+02  2.385E+00  4.666E+00  1.012E-03  2.825E-03  9.430E-05
   1    4   55     1    55    9.8213E+00  2.9189E-03   9.8184E+00  0.000E+00  0.000E+00  0.000E+00  1.26035E+02  2.385E+00  4.666E+00  1.012E-03  2.817E-03  1.018E-04
   1    4   56     1    56    9.8184E+00  2.9182E-03   9.8155E+00  0.000E+00  0.000E+00  0.000E+00  1.25734E+02  2.384E+00  4.665E+00  1.012E-03  2.819E-03  9.871E-05
   1    4   57     1    57    9.8155E+00  2.9175E-03   9.8126E+00  0.000E+00  0.000E+00  0.000E+00  1.25434E+02  2.384E+00  4.665E+00  1.012E-03  2.817E-03  1.004E-04
   1    4   58     1    58    9.8126E+00  2.9168E-03   9.8097E+00  0.000E+00  0.000E+00  0.000E+00  1.25134E+02  2.384E+00  4.664E+00  1.011E-03  2.815E-03  1.016E-04
   1    4   59     1    59    9.8097E+00  2.9161E-03   9.8067E+00  0.000E+00  0.000E+00  0.000E+00  1.24833E+02  2.383E+00  4.664E+00  1.011E-03  2.813E-03  1.026E-04
   1    4   60     1    60    9.8067E+00  2.9154E-03   9.8038E+00  0.000E+00  0.000E+00  0.000E+00  1.24533E+02  2.383E+00  4.664E+00  1.011E-03  2.812E-03  1.036E-04
   1    4   61     1    61    9.8038E+00  2.9147E-03   9.8009E+00  0.000E+00  0.000E+00  0.000E+00  1.24233E+02  2.383E+00  4.663E+00  1.011E-03  2.810E-03  1.045E-04
   1    4   62     1    62    9.8009E+00  2.9140E-03   9.7980E+00  0.000E+00  0.000E+00  0.000E+00  1.23932E+02  2.382E+00  4.663E+00  1.011E-03  2.809E-03  1.053E-04
   1    4   63     1    63    9.7980E+00  2.9133E-03   9.7951E+00  0.000E+00  0.000E+00  0.000E+00  1.23632E+02  2.382E+00  4.662E+00  1.011E-03  2.807E-03  1.059E-04
   1    4   64     1    64    9.7951E+00  2.9126E-03   9.7922E+00  0.000E+00  0.000E+00  0.000E+00  1.23332E+02  2.382E+00  4.662E+00  1.011E-03  2.814E-03  9.888E-05
   1    4   65     1    65    9.7922E+00  2.9119E-03   9.7893E+00  0.000E+00  0.000E+00  0.000E+00  1.23031E+02  2.381E+00  4.661E+00  1.011E-03  2.847E-03  6.487E-05
   1    4   66     1    66    9.7893E+00  2.9112E-03   9.7864E+00  0.000E+00  0.000E+00  0.000E+00  1.22731E+02  2.381E+00  4.661E+00  1.011E-03  2.879E-03  3.256E-05
   1    4   67     1    67    9.7864E+00  2.9105E-03   9.7834E+00  0.000E+00  0.000E+00  0.000E+00  1.22430E+02  2.380E+00  4.661E+00  1.010E-03  2.909E-03  1.833E-06
   1    4   68     1    68    9.7834E+00  2.9098E-03   9.7805E+00  0.000E+00  0.000E+00  0.000E+00  1.22130E+02  2.380E+00  4.660E+00  1.010E-03  2.922E-03 -1.251E-05
   1    4   69     1    69    9.7805E+00  2.9091E-03   9.7776E+00  0.000E+00  0.000E+00  0.000E+00  1.21830E+02  2.380E+00  4.660E+00  1.010E-03  2.921E-03 -1.218E-05
   1    4   70     1    70    9.7776E+00  2.9084E-03   9.7747E+00  0.000E+00  0.000E+00  0.000E+00  1.21529E+02  2.379E+00  4.659E+00  1.010E-03  2.920E-03 -1.195E-05
   1    4   71     1    71    9.7747E+00  2.9077E-03   9.7718E+00  0.000E+00  0.000E+00  0.000E+00  1.21229E+02  2.379E+00  4.659E+00  1.010E-03  2.920E-03 -1.188E-05
   1    4   72     1    72    9.7718E+00  2.9070E-03   9.7689E+00  0.000E+00  0.000E+00  0.000E+00  1.20929E+02  2.379E+00  4.658E+00  1.010E-03  2.919E-03 -1.210E-05
   1    4   73     1    73    9.7689E+00  2.9063E-03   9.7660E+00  0.000E+00  0.000E+00  0.000E+00  1.20628E+02  2.378E+00  4.658E+00  1.010E-03  2.919E-03 -1.268E-05
   1    4   74     1    74    9.7660E+00  2.9056E-03   9.7631E+00  0.000E+00  0.000E+00  0.000E+00  1.20328E+02  2.378E+00  4.658E+00  1.010E-03  2.919E-03 -1.369E-05
   1    4   75     1    75    9.7631E+00  2.9049E-03   9.7602E+00  0.000E+00  0.000E+00  0.000E+00  1.20028E+02  2.378E+00  4.657E+00  1.010E-03  3.133E-03 -2.286E-04
   1    4   76     1    76    9.7602E+00  2.9042E-03   9.7573E+00  0.000E+00  0.000E+00  0.000E+00  1.19727E+02  2.377E+00  4.657E+00  1.009E-03  3.183E-03 -2.787E-04
   1    4   77     1    77    9.7573E+00  2.9035E-03   9.7544E+00  0.000E+00  0.000E+00  0.000E+00  1.19427E+02  2.377E+00  4.656E+00  1.009E-03  3.182E-03 -2.787E-04
   1    4   78     1    78    9.7544E+00  2.9028E-03   9.7515E+00  0.000E+00  0.000E+00  0.000E+00  1.19126E+02  2.376E+00  4.656E+00  1.009E-03  3.182E-03 -2.789E-04
   1    4   79     1    79    9.7515E+00  2.9021E-03   9.7486E+00  0.000E+00  0.000E+00  0.000E+00  1.18826E+02  2.376E+00  4.655E+00  1.009E-03  3.181E-03 -2.791E-04
   1    4   80     1    80    9.7486E+00  2.9014E-03   9.7457E+00  0.000E+00  0.000E+00  0.000E+00  1.18526E+02  2.376E+00  4.655E+00  1.009E-03  3.174E-03 -2.731E-04
   1    4   81     1    81    9.7457E+00  2.9007E-03   9.7428E+00  0.000E+00  0.000E+00  0.000E+00  1.18225E+02  2.375E+00  4.655E+00  1.009E-03  3.119E-03 -2.185E-04
   1    4   82     1    82    9.7428E+00  2.9000E-03   9.7399E+00  0.000E+00  0.000E+00  0.000E+00  1.17925E+02  2.375E+00  4.654E+00  1.009E-03  3.066E-03 -1.656E-04
   1    4   83     1    83    9.7399E+00  2.8993E-03   9.7370E+00  0.000E+00  0.000E+00  0.000E+00  1.17625E+02  2.375E+00  4.654E+00  1.009E-03  3.061E-03 -1.617E-04
   1    4   84     1    84    9.7370E+00  2.8986E-03   9.7341E+00  0.000E+00  0.000E+00  0.000E+00  1.17324E+02  2.374E+00  4.653E+00  1.008E-03  3.061E-03 -1.624E-04
   1    4   85     1    85    9.7341E+00  2.8979E-03   9.7312E+00  0.000E+00  0.000E+00  0.000E+00  1.17024E+02  2.374E+00  4.653E+00  1.008E-03  3.061E-03 -1.628E-04
   1    4   86     1    86    9.7312E+00  2.8972E-03   9.7283E+00  0.000E+00  0.000E+00  0.000E+00  1.16724E+02  2.374E+00  4.652E+00  1.008E-03  3.060E-03 -1.632E-04
   1    4   87     1    87    9.7283E+00  2.8965E-03   9.7254E+00  0.000E+00  0.000E+00  0.000E+00  1.16423E+02  2.373E+00  4.652E+00  1.008E-03  3.060E-03 -1.635E-04
   1    4   88     1    88    9.7254E+00  2.8958E-03   9.7225E+00  0.000E+00  0.000E+00  0.000E+00  1.16123E+02  2.373E+00  4.652E+00  1.008E-03  3.060E-03 -1.637E-04
   1    4   89     1    89    9.7225E+00  2.8951E-03   9.7196E+00  0.000E+00  0.000E+00  0.000E+00  1.15823E+02  2.373E+00  4.651E+00  1.008E-03  3.059E-03 -1.638E-04
   1    4   90     1    90    9.7196E+00  2.8945E-03   9.7167E+00  0.000E+00  0.000E+00  0.000E+00  1.15522E+02  2.372E+00  4.651E+00  1.008E-03  3.058E-03 -1.639E-04
   1    4   91     1    91    9.7167E+00  2.8938E-03   9.7138E+00  0.000E+00  0.000E+00  0.000E+00  1.15222E+02  2.372E+00  4.650E+00  1.008E-03  3.058E-03 -1.640E-04
   1    4   92     1    92    9.7138E+00  2.8931E-03   9.7109E+00  0.000E+00  0.000E+00  0.000E+00  1.14921E+02  2.371E+00  4.650E+00  1.008E-03  3.057E-03 -1.640E-04
   1    4   93     1    93    9.7109E+00  2.8924E-03   9.7080E+00  0.000E+00  0.000E+00  0.000E+00  1.14621E+02  2.371E+00  4.649E+00  1.007E-03  3.049E-03 -1.567E-04
   1    4   94     1    94    9.7080E+00  2.8917E-03   9.7051E+00  0.000E+00  0.000E+00  0.000E+00  1.14321E+02  2.371E+00  4.649E+00  1.007E-03  3.045E-03 -1.533E-04
   1    4   95     1    95    9.7051E+00  2.8910E-03   9.7022E+00  0.000E+00  0.000E+00  0.000E+00  1.14020E+02  2.370E+00  4.649E+00  1.007E-03  3.044E-03 -1.532E-04
   1    4   96     1    96    9.7022E+00  2.8903E-03   9.6993E+00  0.000E+00  0.000E+00  0.000E+00  1.13720E+02  2.370E+00  4.648E+00  1.007E-03  3.043E-03 -1.530E-04
   1    4   97     1    97    9.6993E+00  2.8896E-03   9.6965E+00  0.000E+00  0.000E+00  0.000E+00  1.13420E+02  2.370E+00  4.648E+00  1.007E-03  3.042E-03 -1.528E-04
   1    4   98     1    98    9.6965E+00  2.8889E-03   9.6936E+00  0.000E+00  0.000E+00  0.000E+00  1.13119E+02  2.369E+00  4.647E+00  1.007E-03  3.041E-03 -1.526E-04
   1    4   99     1    99    9.6936E+00  2.8882E-03   9.6907E+00  0.000E+00  0.000E+00  0.000E+00  1.12819E+02  2.369E+00  4.647E+00  1.007E-03  3.041E-03 -1.523E-04
   1    4  100     1   100    9.6907E+00  2.8875E-03   9.6878E+00  0.000E+00  0.000E+00  0.000E+00  1.12519E+02  2.369E+00  4.646E+00  1.007E-03  3.040E-03 -1.521E-04



1
  VOLUMETRIC BUDGET FOR UNSATURATED ZONE BENEATH STREAMS AT END OF TIME STEP    30 STRESS PERIOD  43
  ------------------------------------------------------------------------------------------------

    CUMULATIVE VOLUMES             L**3    RATES FOR THIS TIME STEP         L**3/T
    ------------------                     ------------------------


          STREAM LOSS =     33986400.0000            STREAM LOSS =            0.2922
    CHANGE IN STORAGE =      1937606.3750      CHANGE IN STORAGE =       -7.3255E-03
       RECHARGE TO GW =     32056290.0000         RECHARGE TO GW =            0.2995

             TOTAL IN =     33986400.0000               TOTAL IN =            0.2995

            TOTAL OUT =     33993896.0000              TOTAL OUT =            0.2995

             IN - OUT =        -7496.0000               IN - OUT =       -1.1921E-07

  PERCENT DISCREPANCY =           -0.01      PERCENT DISCREPANCY =            -0.00



1
  VOLUMETRIC BUDGET FOR ENTIRE MODEL AT END OF TIME STEP   30, STRESS PERIOD  43
  ------------------------------------------------------------------------------

     CUMULATIVE VOLUMES      L**3       RATES FOR THIS TIME STEP      L**3/T
     ------------------                 ------------------------

           IN:                                      IN:
           ---                                      ---
             STORAGE     =   113567424.0000               STORAGE     =           0.1814
       CONSTANT HEAD     =           0.0000         CONSTANT HEAD     =           0.0000
               WELLS     =           0.0000                 WELLS     =           0.0000
     HEAD DEP BOUNDS     =     2567783.5000       HEAD DEP BOUNDS     =       7.8428E-02
      STREAM LEAKAGE     =    32055878.0000        STREAM LEAKAGE     =           0.2995

                TOTAL IN =   148191088.0000                  TOTAL IN =           0.5594

          OUT:                                     OUT:
          ----                                     ----
             STORAGE     =     3104346.5000               STORAGE     =       8.4913E-04
       CONSTANT HEAD     =           0.0000         CONSTANT HEAD     =           0.0000
               WELLS     =   128727408.0000                 WELLS     =           0.5585
     HEAD DEP BOUNDS     =    16359348.0000       HEAD DEP BOUNDS     =           0.0000
      STREAM LEAKAGE     =           0.0000        STREAM LEAKAGE     =           0.0000

               TOTAL OUT =   148191104.0000                 TOTAL OUT =           0.5594

                IN - OUT =         -16.0000                  IN - OUT =           0.0000

     PERCENT DISCREPANCY =          -0.00         PERCENT DISCREPANCY =           0.00






         TIME SUMMARY AT END OF TIME STEP   30 IN STRESS PERIOD   43
                    SECONDS     MINUTES      HOURS       DAYS        YEARS
                    -----------------------------------------------------------
   TIME STEP LENGTH 2.49961E+05  4166.0      69.434      2.8931     7.92080E-03
 STRESS PERIOD TIME 2.59200E+06  43200.      720.00      30.000     8.21355E-02
         TOTAL TIME 1.11456E+08 1.85760E+06  30960.      1290.0      3.5318    
1
1
                            STRESS PERIOD NO.   44, LENGTH =   2592000.    
                            -----------------------------------------------

                              NUMBER OF TIME STEPS =    30

                               MULTIPLIER FOR DELT =     1.100

                            INITIAL TIME STEP SIZE =   15757.40    

 REUSING NON-PARAMETER WELLS FROM LAST STRESS PERIOD

      1 WELL 

 REUSING NON-PARAMETER GHB CELLS FROM LAST STRESS PERIOD

      7 GHB CELLS



 CLASSIFICATION & COUNT OF STREAM SEGMENTS BASED ON SOURCE OF INFLOW:

                HEADWATER     DIVERSION     RECEIVES TRIBUTARY FLOW
                ---------     ---------     -----------------------
                     1              0               0



                    INPUT DATA FOR EACH STREAM SEGMENT
 ---------------------------------------------------------------------------------------------

 SEGMENT    SEG.     INFLOW   OVERLAND   STREAM    STREAM   ICALC  OUTFLOW  DIVERSION PRIORITY
    NO.    LENGTH     RATE     RUNOFF      ET       PPT.    METH.  TO SEG.  FROM SEG.    NO.

      1  2.000E+04 6.510E+00 0.000E+00 0.000E+00 0.000E+00    2        0        0        0


         STREAMBED PROPERTIES AND STREAM DIMENSIONS

 SEGMENT     BED HYD. COND.      BED THICKNESS     ELEV.-TOP OF BED     WIDTH OF STREAM     DEPTH OF STREAM    STREAM ROUGHNESS
    No.     UPPER     LOWER     UPPER     LOWER     UPPER     LOWER     UPPER     LOWER     UPPER     LOWER   CHANNEL      BANK

     1  3.500E-07 3.500E-07                                                                                 3.000E-02 4.000E-02

  EIGHT POINT CROSS-SECTION DATA FOR SEGMENTS WITH ICALC = 2
    X VALUES X VALUES START FROM LEFT SIDE LOOKING DOWNSTREAM

     SEGMENT NO.        X1        X2        X3        X4        X5        X6        X7        X8
            1      0.000E+00 2.000E+00 4.000E+00 6.000E+00 8.000E+00 1.000E+01 1.200E+01 1.400E+01

    Z VALUES ARE RELATIVE TO STREAMBED ELEVATION

     SEGMENT NO.          Z1        Z2        Z3        Z4        Z5        Z6        Z7        Z8
            1      6.000E+00 4.500E+00 3.500E+00 0.000E+00 3.000E-01 3.500E+00 4.500E+00 6.000E+00



 
 SOLVING FOR HEAD 
                                                   Max.-Head-Change                         Max.-Flux-Residual
  Residual-Control   Outer-Iter.   Inner-Iter.     Column Row Layer    Maximum-Head-Change  Column Row Layer    Maximum-Flux-Residual          L2-NORM 
          0                 1           2             1    2     1      -0.3349114177E-02      50    3    1        -0.2351079992E+00      0.2956026391E+00
          0                 2           2             3    1     1       0.3233654002E-03      50    3    1         0.1889530183E-01      0.2031423482E-01
          0                 3           1             3    1     1      -0.2849398938E-04      50    3    1        -0.1878925770E-02      0.2010203849E-02
          0                 4           1             3    1     1       0.2250700769E-05      50    3    1         0.1489436207E-03      0.1594349696E-03
          0                 5           1             3    1     1      -0.1565400333E-06      50    3    1        -0.1048030729E-04      0.1121816301E-04

    ------------------------------------------------
       NWT REQUIRED            5 OUTER ITERATIONS 
       AND A TOTAL OF          7 INNER ITERATIONS.
    ------------------------------------------------

 NO OUTPUT CONTROL FOR STRESS PERIOD   44   TIME STEP    1
 
 WELLS WITH REDUCED PUMPING FOR STRESS PERIOD    44 TIME STEP     1
   LAY   ROW   COL         APPL.Q          ACT.Q        GW-HEAD       CELL-BOT
     1     3    50  -0.101017E+01  -0.317189E+00   0.418079E-03   0.000000E+00
     1     5    55  -0.101017E+01  -0.241394E+00   0.352901E-03   0.000000E+00
 
 
 SOLVING FOR HEAD 
                                                   Max.-Head-Change                         Max.-Flux-Residual
  Residual-Control   Outer-Iter.   Inner-Iter.     Column Row Layer    Maximum-Head-Change  Column Row Layer    Maximum-Flux-Residual          L2-NORM 
          0                 1           2             1    2     1      -0.3693805534E-02       1    3    1        -0.7079999328E-03      0.9584801834E-02
          0                 2           2             1    1     1       0.3556215010E-03       1    3    1         0.7079936031E-04      0.9408244999E-03
          0                 3           1             1    1     1      -0.3126682883E-04       1    3    1        -0.6371962343E-05      0.8784834316E-04
          0                 4           1             1    1     1       0.2466425586E-05       1    3    1         0.5103943970E-06      0.7192912935E-05
          0                 5           1             1    1     1      -0.1714332108E-06       1    4    1         0.3827500450E-07      0.5097907425E-06

    ------------------------------------------------
       NWT REQUIRED            5 OUTER ITERATIONS 
       AND A TOTAL OF          7 INNER ITERATIONS.
    ------------------------------------------------

 NO OUTPUT CONTROL FOR STRESS PERIOD   44   TIME STEP    2
 
 WELLS WITH REDUCED PUMPING FOR STRESS PERIOD    44 TIME STEP     2
   LAY   ROW   COL         APPL.Q          ACT.Q        GW-HEAD       CELL-BOT
     1     3    50  -0.101017E+01  -0.317162E+00   0.418058E-03   0.000000E+00
     1     5    55  -0.101017E+01  -0.241384E+00   0.352892E-03   0.000000E+00
 
 
 SOLVING FOR HEAD 
                                                   Max.-Head-Change                         Max.-Flux-Residual
  Residual-Control   Outer-Iter.   Inner-Iter.     Column Row Layer    Maximum-Head-Change  Column Row Layer    Maximum-Flux-Residual          L2-NORM 
          0                 1           2             1    1     1      -0.4070013295E-02       1    3    1        -0.7076731181E-03      0.9586178438E-02
          0                 2           2             1    1     1       0.3907115303E-03       1    3    1         0.7076656048E-04      0.9415652863E-03
          0                 3           1             1    1     1      -0.3426861429E-04       1    3    1        -0.6369013729E-05      0.8818684101E-04
          0                 4           1             1    1     1       0.2699022750E-05       1    4    1        -0.5351731787E-06      0.7247580981E-05
          0                 5           1             1    1     1      -0.1874480599E-06       1    4    1         0.4069301340E-07      0.5148780179E-06

    ------------------------------------------------
       NWT REQUIRED            5 OUTER ITERATIONS 
       AND A TOTAL OF          7 INNER ITERATIONS.
    ------------------------------------------------

 NO OUTPUT CONTROL FOR STRESS PERIOD   44   TIME STEP    3
 
 WELLS WITH REDUCED PUMPING FOR STRESS PERIOD    44 TIME STEP     3
   LAY   ROW   COL         APPL.Q          ACT.Q        GW-HEAD       CELL-BOT
     1     3    50  -0.100987E+01  -0.317151E+00   0.418123E-03   0.000000E+00
     1     5    55  -0.100987E+01  -0.241385E+00   0.352953E-03   0.000000E+00
 
 
 SOLVING FOR HEAD 
                                                   Max.-Head-Change                         Max.-Flux-Residual
  Residual-Control   Outer-Iter.   Inner-Iter.     Column Row Layer    Maximum-Head-Change  Column Row Layer    Maximum-Flux-Residual          L2-NORM 
          0                 1           2             1    1     1      -0.4482088408E-02       1    3    1        -0.7060866537E-03      0.9586441639E-02
          0                 2           2             1    1     1       0.4287960079E-03       1    3    1         0.7060786071E-04      0.9417781130E-03
          0                 3           1             1    1     1      -0.3750551136E-04       1    3    1        -0.6354734584E-05      0.8846846962E-04
          0                 4           1             1    1     1       0.2948520934E-05       1    4    1        -0.5606437448E-06      0.7299995647E-05
          0                 5           1             1    1     1      -0.2045650623E-06       1    4    1         0.4309287505E-07      0.5200441180E-06

    ------------------------------------------------
       NWT REQUIRED            5 OUTER ITERATIONS 
       AND A TOTAL OF          7 INNER ITERATIONS.
    ------------------------------------------------

 NO OUTPUT CONTROL FOR STRESS PERIOD   44   TIME STEP    4
 
 WELLS WITH REDUCED PUMPING FOR STRESS PERIOD    44 TIME STEP     4
   LAY   ROW   COL         APPL.Q          ACT.Q        GW-HEAD       CELL-BOT
     1     3    50  -0.101014E+01  -0.317138E+00   0.418046E-03   0.000000E+00
     1     5    55  -0.101014E+01  -0.241386E+00   0.352900E-03   0.000000E+00
 
 
 SOLVING FOR HEAD 
                                                   Max.-Head-Change                         Max.-Flux-Residual
  Residual-Control   Outer-Iter.   Inner-Iter.     Column Row Layer    Maximum-Head-Change  Column Row Layer    Maximum-Flux-Residual          L2-NORM 
          0                 1           2             1    1     1      -0.4932607401E-02       1    3    1        -0.7048028186E-03      0.9587770568E-02
          0                 2           2             1    1     1       0.4701680565E-03       1    3    1         0.7047942508E-04      0.9416946571E-03
          0                 3           1             1    1     1      -0.4099874694E-04       1    3    1        -0.6343179848E-05      0.8872746676E-04
          0                 4           1             1    1     1       0.3216232427E-05       1    4    1        -0.5858369505E-06      0.7352721172E-05
          0                 5           1             1    1     1      -0.2228543479E-06       1    4    1         0.4552704169E-07      0.5254521248E-06

    ------------------------------------------------
       NWT REQUIRED            5 OUTER ITERATIONS 
       AND A TOTAL OF          7 INNER ITERATIONS.
    ------------------------------------------------

 NO OUTPUT CONTROL FOR STRESS PERIOD   44   TIME STEP    5
 
 WELLS WITH REDUCED PUMPING FOR STRESS PERIOD    44 TIME STEP     5
   LAY   ROW   COL         APPL.Q          ACT.Q        GW-HEAD       CELL-BOT
     1     3    50  -0.101007E+01  -0.317123E+00   0.418051E-03   0.000000E+00
     1     5    55  -0.101007E+01  -0.241386E+00   0.352914E-03   0.000000E+00
 
 
 SOLVING FOR HEAD 
                                                   Max.-Head-Change                         Max.-Flux-Residual
  Residual-Control   Outer-Iter.   Inner-Iter.     Column Row Layer    Maximum-Head-Change  Column Row Layer    Maximum-Flux-Residual          L2-NORM 
          0                 1           2             1    1     1      -0.5425828283E-02       1    3    1        -0.7039240327E-03      0.9585181341E-02
          0                 2           2             1    1     1       0.5151820737E-03       1    3    1         0.7039148338E-04      0.9419882781E-03
          0                 3           1             1    1     1      -0.4477388629E-04       1    3    1        -0.6335270267E-05      0.8902008270E-04
          0                 4           1             1    1     1       0.3503739999E-05       1    4    1        -0.6108065946E-06      0.7409671480E-05
          0                 5           1             1    1     1      -0.2423999582E-06       1    4    1         0.4799315434E-07      0.5313846508E-06

    ------------------------------------------------
       NWT REQUIRED            5 OUTER ITERATIONS 
       AND A TOTAL OF          7 INNER ITERATIONS.
    ------------------------------------------------

 NO OUTPUT CONTROL FOR STRESS PERIOD   44   TIME STEP    6
 
 WELLS WITH REDUCED PUMPING FOR STRESS PERIOD    44 TIME STEP     6
   LAY   ROW   COL         APPL.Q          ACT.Q        GW-HEAD       CELL-BOT
     1     3    50  -0.100994E+01  -0.317107E+00   0.418070E-03   0.000000E+00
     1     5    55  -0.100994E+01  -0.241386E+00   0.352940E-03   0.000000E+00
 
 
 SOLVING FOR HEAD 
                                                   Max.-Head-Change                         Max.-Flux-Residual
  Residual-Control   Outer-Iter.   Inner-Iter.     Column Row Layer    Maximum-Head-Change  Column Row Layer    Maximum-Flux-Residual          L2-NORM 
          0                 1           2             1    1     1      -0.5966508168E-02       1    3    1        -0.7033276088E-03      0.9585241819E-02
          0                 2           2             1    1     1       0.5642321221E-03       1    3    1         0.7033176573E-04      0.9418497075E-03
          0                 3           1             1    1     1      -0.4885923145E-04       1    3    1        -0.6329901577E-05      0.8928631593E-04
          0                 4           1             1    1     1       0.3812777119E-05       1    4    1        -0.6354454776E-06      0.7466057955E-05
          0                 5           1             1    1     1      -0.2632918425E-06       1    4    1         0.5047765939E-07      0.5374419258E-06

    ------------------------------------------------
       NWT REQUIRED            5 OUTER ITERATIONS 
       AND A TOTAL OF          7 INNER ITERATIONS.
    ------------------------------------------------

 NO OUTPUT CONTROL FOR STRESS PERIOD   44   TIME STEP    7
 
 WELLS WITH REDUCED PUMPING FOR STRESS PERIOD    44 TIME STEP     7
   LAY   ROW   COL         APPL.Q          ACT.Q        GW-HEAD       CELL-BOT
     1     3    50  -0.100988E+01  -0.317089E+00   0.418070E-03   0.000000E+00
     1     5    55  -0.100988E+01  -0.241386E+00   0.352951E-03   0.000000E+00
 
 
 SOLVING FOR HEAD 
                                                   Max.-Head-Change                         Max.-Flux-Residual
  Residual-Control   Outer-Iter.   Inner-Iter.     Column Row Layer    Maximum-Head-Change  Column Row Layer    Maximum-Flux-Residual          L2-NORM 
          0                 1           2             1    1     1      -0.6559793419E-02       1    3    1        -0.7028993191E-03      0.9579998028E-02
          0                 2           2             1    1     1       0.6177430596E-03       1    3    1         0.7028885017E-04      0.9423624637E-03
          0                 3           1             1    1     1      -0.5328510441E-04       1    3    1        -0.6326045849E-05      0.8958932626E-04
          0                 4           1             1    1     1       0.4145170172E-05       1    4    1        -0.6596330664E-06      0.7525751279E-05
          0                 5           1             1    1     1      -0.2856213222E-06       1    4    1         0.5296569583E-07      0.5439573632E-06

    ------------------------------------------------
       NWT REQUIRED            5 OUTER ITERATIONS 
       AND A TOTAL OF          7 INNER ITERATIONS.
    ------------------------------------------------

 NO OUTPUT CONTROL FOR STRESS PERIOD   44   TIME STEP    8
 
 WELLS WITH REDUCED PUMPING FOR STRESS PERIOD    44 TIME STEP     8
   LAY   ROW   COL         APPL.Q          ACT.Q        GW-HEAD       CELL-BOT
     1     3    50  -0.100991E+01  -0.317068E+00   0.418047E-03   0.000000E+00
     1     5    55  -0.100991E+01  -0.241386E+00   0.352946E-03   0.000000E+00
 
 
 SOLVING FOR HEAD 
                                                   Max.-Head-Change                         Max.-Flux-Residual
  Residual-Control   Outer-Iter.   Inner-Iter.     Column Row Layer    Maximum-Head-Change  Column Row Layer    Maximum-Flux-Residual          L2-NORM 
          0                 1           2             1    1     1      -0.7211212398E-02       1    3    1        -0.7025612760E-03      0.9574900316E-02
          0                 2           2             1    1     1       0.6761700880E-03       1    3    1         0.7025494866E-04      0.9411292152E-03
          0                 3           1             1    1     1      -0.5808381076E-04       1    3    1        -0.6323002186E-05      0.8973051657E-04
          0                 4           1             1    1     1       0.4502832633E-05       1    4    1        -0.6832630604E-06      0.7575040273E-05
          0                 5           1             1    1     1      -0.3094803964E-06       1    4    1         0.5544311676E-07      0.5499964319E-06

    ------------------------------------------------
       NWT REQUIRED            5 OUTER ITERATIONS 
       AND A TOTAL OF          7 INNER ITERATIONS.
    ------------------------------------------------

 NO OUTPUT CONTROL FOR STRESS PERIOD   44   TIME STEP    9
 
 WELLS WITH REDUCED PUMPING FOR STRESS PERIOD    44 TIME STEP     9
   LAY   ROW   COL         APPL.Q          ACT.Q        GW-HEAD       CELL-BOT
     1     3    50  -0.100996E+01  -0.317045E+00   0.418017E-03   0.000000E+00
     1     5    55  -0.100996E+01  -0.241385E+00   0.352935E-03   0.000000E+00
 
 
 SOLVING FOR HEAD 
                                                   Max.-Head-Change                         Max.-Flux-Residual
  Residual-Control   Outer-Iter.   Inner-Iter.     Column Row Layer    Maximum-Head-Change  Column Row Layer    Maximum-Flux-Residual          L2-NORM 
          0                 1           2             1    1     1      -0.7926722919E-02       1    2    1        -0.7022703281E-03      0.9573525791E-02
          0                 2           2             1    1     1       0.7400032114E-03       1    2    1         0.7022637658E-04      0.9410328578E-03
          0                 3           1             1    1     1      -0.6329001757E-04       1    2    1        -0.6320428595E-05      0.8997260234E-04
          0                 4           1             1    1     1       0.4887790185E-05       1    4    1        -0.7062457144E-06      0.7632759287E-05
          0                 5           1             1    1     1      -0.3349630390E-06       1    4    1         0.5789664570E-07      0.5567999122E-06

    ------------------------------------------------
       NWT REQUIRED            5 OUTER ITERATIONS 
       AND A TOTAL OF          7 INNER ITERATIONS.
    ------------------------------------------------

 NO OUTPUT CONTROL FOR STRESS PERIOD   44   TIME STEP   10
 
 WELLS WITH REDUCED PUMPING FOR STRESS PERIOD    44 TIME STEP    10
   LAY   ROW   COL         APPL.Q          ACT.Q        GW-HEAD       CELL-BOT
     1     3    50  -0.100991E+01  -0.317019E+00   0.418008E-03   0.000000E+00
     1     5    55  -0.100991E+01  -0.241383E+00   0.352943E-03   0.000000E+00
 
 
 SOLVING FOR HEAD 
                                                   Max.-Head-Change                         Max.-Flux-Residual
  Residual-Control   Outer-Iter.   Inner-Iter.     Column Row Layer    Maximum-Head-Change  Column Row Layer    Maximum-Flux-Residual          L2-NORM 
          0                 1           2             1    1     1      -0.8712775028E-02       1    1    1        -0.7020246756E-03      0.9573686489E-02
          0                 2           2             1    1     1       0.8097731278E-03       1    1    1         0.7020198408E-04      0.9409948477E-03
          0                 3           1             1    1     1      -0.6894125496E-04       1    4    1         0.6428384811E-05      0.9021472176E-04
          0                 4           1             1    1     1       0.5302212741E-05       1    4    1        -0.7285050074E-06      0.7690739767E-05
          0                 5           1             1    1     1      -0.3621673233E-06       1    4    1         0.6031374866E-07      0.5637539096E-06

    ------------------------------------------------
       NWT REQUIRED            5 OUTER ITERATIONS 
       AND A TOTAL OF          7 INNER ITERATIONS.
    ------------------------------------------------

 NO OUTPUT CONTROL FOR STRESS PERIOD   44   TIME STEP   11
 
 WELLS WITH REDUCED PUMPING FOR STRESS PERIOD    44 TIME STEP    11
   LAY   ROW   COL         APPL.Q          ACT.Q        GW-HEAD       CELL-BOT
     1     3    50  -0.101003E+01  -0.316991E+00   0.417956E-03   0.000000E+00
     1     5    55  -0.101003E+01  -0.241381E+00   0.352917E-03   0.000000E+00
 
 
 SOLVING FOR HEAD 
                                                   Max.-Head-Change                         Max.-Flux-Residual
  Residual-Control   Outer-Iter.   Inner-Iter.     Column Row Layer    Maximum-Head-Change  Column Row Layer    Maximum-Flux-Residual          L2-NORM 
          0                 1           2             1    1     1      -0.9576386958E-02       1    1    1        -0.7017604445E-03      0.9573436729E-02
          0                 2           2             1    1     1       0.8860582933E-03       1    1    1         0.7017547705E-04      0.9409914638E-03
          0                 3           1             1    1     1      -0.7507851343E-04       1    4    1         0.6544770141E-05      0.9044757164E-04
          0                 4           1             1    1     1       0.5748452204E-05       1    4    1        -0.7499761274E-06      0.7747925577E-05
          0                 5           1             1    1     1      -0.3911971706E-06       1    4    1         0.6268256314E-07      0.5707910582E-06

    ------------------------------------------------
       NWT REQUIRED            5 OUTER ITERATIONS 
       AND A TOTAL OF          7 INNER ITERATIONS.
    ------------------------------------------------

 NO OUTPUT CONTROL FOR STRESS PERIOD   44   TIME STEP   12
 
 WELLS WITH REDUCED PUMPING FOR STRESS PERIOD    44 TIME STEP    12
   LAY   ROW   COL         APPL.Q          ACT.Q        GW-HEAD       CELL-BOT
     1     3    50  -0.101005E+01  -0.316959E+00   0.417926E-03   0.000000E+00
     1     5    55  -0.101005E+01  -0.241379E+00   0.352911E-03   0.000000E+00
 
 
 SOLVING FOR HEAD 
                                                   Max.-Head-Change                         Max.-Flux-Residual
  Residual-Control   Outer-Iter.   Inner-Iter.     Column Row Layer    Maximum-Head-Change  Column Row Layer    Maximum-Flux-Residual          L2-NORM 
          0                 1           2             1    1     1      -0.1052521980E-01       1    1    1        -0.7014678755E-03      0.9571365841E-02
          0                 2           2             1    1     1       0.9694918038E-03       1    1    1         0.7014612491E-04      0.9417287438E-03
          0                 3           1             1    1     1      -0.8174681362E-04       1    4    1         0.6654910138E-05      0.9076034215E-04
          0                 4           1             1    1     1       0.6229070446E-05       1    4    1        -0.7706021883E-06      0.7810002015E-05
          0                 5           1             1    1     1      -0.4221637517E-06       1    4    1         0.6499155702E-07      0.5781203075E-06

    ------------------------------------------------
       NWT REQUIRED            5 OUTER ITERATIONS 
       AND A TOTAL OF          7 INNER ITERATIONS.
    ------------------------------------------------

 NO OUTPUT CONTROL FOR STRESS PERIOD   44   TIME STEP   13
 
 WELLS WITH REDUCED PUMPING FOR STRESS PERIOD    44 TIME STEP    13
   LAY   ROW   COL         APPL.Q          ACT.Q        GW-HEAD       CELL-BOT
     1     3    50  -0.101005E+01  -0.316924E+00   0.417898E-03   0.000000E+00
     1     5    55  -0.101005E+01  -0.241376E+00   0.352909E-03   0.000000E+00
 
 
 SOLVING FOR HEAD 
                                                   Max.-Head-Change                         Max.-Flux-Residual
  Residual-Control   Outer-Iter.   Inner-Iter.     Column Row Layer    Maximum-Head-Change  Column Row Layer    Maximum-Flux-Residual          L2-NORM 
          0                 1           2             1    1     1      -0.1156765260E-01       1    1    1        -0.7011485013E-03      0.9560432283E-02
          0                 2           2             1    1     1       0.1060768213E-02       1    1    1         0.7011407945E-04      0.9402294530E-03
          0                 3           1             1    1     1      -0.8899576893E-04       1    4    1         0.6758824465E-05      0.9084592732E-04
          0                 4           1             1    1     1       0.6746870174E-05       1    4    1        -0.7903335444E-06      0.7855064856E-05
          0                 5           1             1    1     1      -0.4551862409E-06       1    4    1         0.6722956769E-07      0.5844624021E-06

    ------------------------------------------------
       NWT REQUIRED            5 OUTER ITERATIONS 
       AND A TOTAL OF          7 INNER ITERATIONS.
    ------------------------------------------------

 NO OUTPUT CONTROL FOR STRESS PERIOD   44   TIME STEP   14
 
 WELLS WITH REDUCED PUMPING FOR STRESS PERIOD    44 TIME STEP    14
   LAY   ROW   COL         APPL.Q          ACT.Q        GW-HEAD       CELL-BOT
     1     3    50  -0.101002E+01  -0.316884E+00   0.417874E-03   0.000000E+00
     1     5    55  -0.101002E+01  -0.241372E+00   0.352912E-03   0.000000E+00
 
 
 SOLVING FOR HEAD 
                                                   Max.-Head-Change                         Max.-Flux-Residual
  Residual-Control   Outer-Iter.   Inner-Iter.     Column Row Layer    Maximum-Head-Change  Column Row Layer    Maximum-Flux-Residual          L2-NORM 
          0                 1           2             1    1     1      -0.1271285854E-01       1    1    1        -0.7008012900E-03      0.9558635078E-02
          0                 2           2             1    1     1       0.1160650337E-02       1    1    1         0.7007923595E-04      0.9396895937E-03
          0                 3           1             1    1     1      -0.9688009921E-04       1    4    1         0.6856558095E-05      0.9100061023E-04
          0                 4           1             1    1     1       0.7304886288E-05       1    4    1        -0.8091271795E-06      0.7904297480E-05
          0                 5           1             1    1     1      -0.4903905645E-06       2    4    1         0.6939538721E-07      0.5911177734E-06

    ------------------------------------------------
       NWT REQUIRED            5 OUTER ITERATIONS 
       AND A TOTAL OF          7 INNER ITERATIONS.
    ------------------------------------------------

 NO OUTPUT CONTROL FOR STRESS PERIOD   44   TIME STEP   15
 
 WELLS WITH REDUCED PUMPING FOR STRESS PERIOD    44 TIME STEP    15
   LAY   ROW   COL         APPL.Q          ACT.Q        GW-HEAD       CELL-BOT
     1     3    50  -0.101002E+01  -0.316841E+00   0.417840E-03   0.000000E+00
     1     5    55  -0.101002E+01  -0.241368E+00   0.352908E-03   0.000000E+00
 
 
 SOLVING FOR HEAD 
                                                   Max.-Head-Change                         Max.-Flux-Residual
  Residual-Control   Outer-Iter.   Inner-Iter.     Column Row Layer    Maximum-Head-Change  Column Row Layer    Maximum-Flux-Residual          L2-NORM 
          0                 1           2             1    1     1      -0.1397088357E-01       1    1    1        -0.7004238388E-03      0.9556990133E-02
          0                 2           2             1    1     1       0.1269976160E-02       1    1    1         0.7004135250E-04      0.9398511580E-03
          0                 3           1             1    1     1      -0.1054601608E-03       1    4    1         0.6948177070E-05      0.9124384127E-04
          0                 4           1             1    1     1       0.7906392179E-05       1    4    1        -0.8269415837E-06      0.7959617215E-05
          0                 5           1             1    1     1      -0.5279062661E-06       2    4    1         0.7149036563E-07      0.5981071931E-06

    ------------------------------------------------
       NWT REQUIRED            5 OUTER ITERATIONS 
       AND A TOTAL OF          7 INNER ITERATIONS.
    ------------------------------------------------

 NO OUTPUT CONTROL FOR STRESS PERIOD   44   TIME STEP   16
 
 WELLS WITH REDUCED PUMPING FOR STRESS PERIOD    44 TIME STEP    16
   LAY   ROW   COL         APPL.Q          ACT.Q        GW-HEAD       CELL-BOT
     1     3    50  -0.101002E+01  -0.316793E+00   0.417802E-03   0.000000E+00
     1     5    55  -0.101002E+01  -0.241363E+00   0.352904E-03   0.000000E+00
 
 
 SOLVING FOR HEAD 
                                                   Max.-Head-Change                         Max.-Flux-Residual
  Residual-Control   Outer-Iter.   Inner-Iter.     Column Row Layer    Maximum-Head-Change  Column Row Layer    Maximum-Flux-Residual          L2-NORM 
          0                 1           2             1    1     1      -0.1535272906E-01       1    1    1        -0.7000129640E-03      0.9551271128E-02
          0                 2           2             1    1     1       0.1389665986E-02       1    1    1         0.7000010901E-04      0.9400263375E-03
          0                 3           2             1    1     1      -0.1148145321E-03       1    4    1         0.7033765460E-05      0.9145803302E-04
          0                 4           1             1    1     1       0.8567693947E-05       1    4    1        -0.8446205655E-06      0.8021640074E-05
          0                 5           1             1    1     1      -0.5686428640E-06       2    4    1         0.7357555631E-07      0.6055888868E-06

    ------------------------------------------------
       NWT REQUIRED            5 OUTER ITERATIONS 
       AND A TOTAL OF          8 INNER ITERATIONS.
    ------------------------------------------------

 NO OUTPUT CONTROL FOR STRESS PERIOD   44   TIME STEP   17
 
 WELLS WITH REDUCED PUMPING FOR STRESS PERIOD    44 TIME STEP    17
   LAY   ROW   COL         APPL.Q          ACT.Q        GW-HEAD       CELL-BOT
     1     3    50  -0.101004E+01  -0.316740E+00   0.417755E-03   0.000000E+00
     1     5    55  -0.101004E+01  -0.241357E+00   0.352894E-03   0.000000E+00
 
 
 SOLVING FOR HEAD 
                                                   Max.-Head-Change                         Max.-Flux-Residual
  Residual-Control   Outer-Iter.   Inner-Iter.     Column Row Layer    Maximum-Head-Change  Column Row Layer    Maximum-Flux-Residual          L2-NORM 
          0                 1           2             1    1     1      -0.1687043614E-01       1    1    1        -0.6995649627E-03      0.9544626995E-02
          0                 2           2             1    1     1       0.1520729651E-02       1    1    1         0.6995513329E-04      0.9386161169E-03
          0                 3           2             1    1     1      -0.1249992375E-03       1    4    1         0.7113422804E-05      0.9148810581E-04
          0                 4           1             1    1     1       0.9274285032E-05       1    4    1        -0.8607224231E-06      0.8059749875E-05
          0                 5           1             1    1     1      -0.6116058944E-06       2    4    1         0.7551335557E-07      0.6112828316E-06

    ------------------------------------------------
       NWT REQUIRED            5 OUTER ITERATIONS 
       AND A TOTAL OF          8 INNER ITERATIONS.
    ------------------------------------------------

 NO OUTPUT CONTROL FOR STRESS PERIOD   44   TIME STEP   18
 
 WELLS WITH REDUCED PUMPING FOR STRESS PERIOD    44 TIME STEP    18
   LAY   ROW   COL         APPL.Q          ACT.Q        GW-HEAD       CELL-BOT
     1     3    50  -0.101003E+01  -0.316682E+00   0.417712E-03   0.000000E+00
     1     5    55  -0.101003E+01  -0.241351E+00   0.352891E-03   0.000000E+00
 
 
 SOLVING FOR HEAD 
                                                   Max.-Head-Change                         Max.-Flux-Residual
  Residual-Control   Outer-Iter.   Inner-Iter.     Column Row Layer    Maximum-Head-Change  Column Row Layer    Maximum-Flux-Residual          L2-NORM 
          0                 1           2             1    1     1      -0.1853717916E-01       1    1    1        -0.6990756980E-03      0.9547911850E-02
          0                 2           2             1    1     1       0.1664274445E-02       1    1    1         0.6990600956E-04      0.9389284526E-03
          0                 3           2             1    1     1      -0.1361032826E-03       1    4    1         0.7187262089E-05      0.9171083865E-04
          0                 4           1             1    1     1       0.1003919338E-04       1    4    1        -0.8758630301E-06      0.8113050725E-05
          0                 5           1             1    1     1      -0.6574609054E-06       2    4    1         0.7735719265E-07      0.6178070701E-06

    ------------------------------------------------
       NWT REQUIRED            5 OUTER ITERATIONS 
       AND A TOTAL OF          8 INNER ITERATIONS.
    ------------------------------------------------

 NO OUTPUT CONTROL FOR STRESS PERIOD   44   TIME STEP   19
 
 WELLS WITH REDUCED PUMPING FOR STRESS PERIOD    44 TIME STEP    19
   LAY   ROW   COL         APPL.Q          ACT.Q        GW-HEAD       CELL-BOT
     1     3    50  -0.100998E+01  -0.316620E+00   0.417676E-03   0.000000E+00
     1     5    55  -0.100998E+01  -0.241344E+00   0.352897E-03   0.000000E+00
 
 
 SOLVING FOR HEAD 
                                                   Max.-Head-Change                         Max.-Flux-Residual
  Residual-Control   Outer-Iter.   Inner-Iter.     Column Row Layer    Maximum-Head-Change  Column Row Layer    Maximum-Flux-Residual          L2-NORM 
          0                 1           2             1    1     1      -0.2036736448E-01       1    1    1        -0.6985406226E-03      0.9558073442E-02
          0                 2           2             1    1     1       0.1821513405E-02       1    1    1         0.6985228080E-04      0.9395912258E-03
          0                 3           2             1    1     1      -0.1482162720E-03       1    4    1         0.7255407862E-05      0.9188946843E-04
          0                 4           1             1    1     1       0.1086796561E-04       1    4    1        -0.8900424397E-06      0.8158164107E-05
          0                 5           1             1    1     1      -0.7063717445E-06       2    4    1         0.7910367472E-07      0.6234539452E-06

    ------------------------------------------------
       NWT REQUIRED            5 OUTER ITERATIONS 
       AND A TOTAL OF          8 INNER ITERATIONS.
    ------------------------------------------------

 NO OUTPUT CONTROL FOR STRESS PERIOD   44   TIME STEP   20
 
 WELLS WITH REDUCED PUMPING FOR STRESS PERIOD    44 TIME STEP    20
   LAY   ROW   COL         APPL.Q          ACT.Q        GW-HEAD       CELL-BOT
     1     3    50  -0.100997E+01  -0.316559E+00   0.417630E-03   0.000000E+00
     1     5    55  -0.100997E+01  -0.241343E+00   0.352898E-03   0.000000E+00
 
 
 SOLVING FOR HEAD 
                                                   Max.-Head-Change                         Max.-Flux-Residual
  Residual-Control   Outer-Iter.   Inner-Iter.     Column Row Layer    Maximum-Head-Change  Column Row Layer    Maximum-Flux-Residual          L2-NORM 
          0                 1           2             1    1     1      -0.2237673451E-01       1    1    1        -0.6979547528E-03      0.9556464322E-02
          0                 2           2             1    1     1       0.1993773930E-02       1    1    1         0.6979344603E-04      0.9385653989E-03
          0                 3           2             1    1     1      -0.1614365747E-03       1    4    1         0.7317994250E-05      0.9192370794E-04
          0                 4           1             1    1     1       0.1176667929E-04       1    4    1        -0.9032657360E-06      0.8193091594E-05
          0                 5           1             1    1     1      -0.7584676389E-06       2    4    1         0.8075020119E-07      0.6282741117E-06

    ------------------------------------------------
       NWT REQUIRED            5 OUTER ITERATIONS 
       AND A TOTAL OF          8 INNER ITERATIONS.
    ------------------------------------------------

 NO OUTPUT CONTROL FOR STRESS PERIOD   44   TIME STEP   21
 
 WELLS WITH REDUCED PUMPING FOR STRESS PERIOD    44 TIME STEP    21
   LAY   ROW   COL         APPL.Q          ACT.Q        GW-HEAD       CELL-BOT
     1     3    50  -0.101000E+01  -0.316493E+00   0.417571E-03   0.000000E+00
     1     5    55  -0.101000E+01  -0.241345E+00   0.352893E-03   0.000000E+00
 
 
 SOLVING FOR HEAD 
                                                   Max.-Head-Change                         Max.-Flux-Residual
  Residual-Control   Outer-Iter.   Inner-Iter.     Column Row Layer    Maximum-Head-Change  Column Row Layer    Maximum-Flux-Residual          L2-NORM 
          0                 1           2             1    1     1      -0.2463707537E-01       1    1    1        -0.6973126332E-03      0.9569937479E-02
          0                 2           2             1    1     1       0.2188152037E-02       1    1    1         0.6972944402E-04      0.9378931231E-03
          0                 3           2             1    1     1      -0.1763540211E-03       1    4    1         0.7267720822E-05      0.9190568059E-04
          0                 4           1             1    1     1       0.1277600524E-04       1    4    1        -0.9077302394E-06      0.8220025783E-05
          0                 5           1             1    1     1      -0.8157491975E-06       2    4    1         0.8174565735E-07      0.6321738652E-06

    ------------------------------------------------
       NWT REQUIRED            5 OUTER ITERATIONS 
       AND A TOTAL OF          8 INNER ITERATIONS.
    ------------------------------------------------

 NO OUTPUT CONTROL FOR STRESS PERIOD   44   TIME STEP   22
 
 WELLS WITH REDUCED PUMPING FOR STRESS PERIOD    44 TIME STEP    22
   LAY   ROW   COL         APPL.Q          ACT.Q        GW-HEAD       CELL-BOT
     1     3    50  -0.100999E+01  -0.316435E+00   0.417526E-03   0.000000E+00
     1     5    55  -0.100999E+01  -0.241364E+00   0.352911E-03   0.000000E+00
 
 
 SOLVING FOR HEAD 
                                                   Max.-Head-Change                         Max.-Flux-Residual
  Residual-Control   Outer-Iter.   Inner-Iter.     Column Row Layer    Maximum-Head-Change  Column Row Layer    Maximum-Flux-Residual          L2-NORM 
          0                 1           2             4    4     1      -0.2918803927E-01       2    5    1        -0.6989958836E-03      0.9854044225E-02
          0                 2           2             3    1     1       0.2485888166E-02       2    3    1         0.6991030402E-04      0.9331201589E-03
          0                 3           2             3    1     1      -0.1986596534E-03       2    3    1        -0.6292037984E-05      0.9016824431E-04
          0                 4           1             3    1     1       0.1423912162E-04       1    4    1        -0.8381243362E-06      0.8091243590E-05
          0                 5           1             1    1     1      -0.8945701326E-06       2    4    1         0.7906104926E-07      0.6263230699E-06

    ------------------------------------------------
       NWT REQUIRED            5 OUTER ITERATIONS 
       AND A TOTAL OF          8 INNER ITERATIONS.
    ------------------------------------------------

 NO OUTPUT CONTROL FOR STRESS PERIOD   44   TIME STEP   23
 
 WELLS WITH REDUCED PUMPING FOR STRESS PERIOD    44 TIME STEP    23
   LAY   ROW   COL         APPL.Q          ACT.Q        GW-HEAD       CELL-BOT
     1     3    50  -0.101002E+01  -0.316405E+00   0.417497E-03   0.000000E+00
     1     5    55  -0.101002E+01  -0.241414E+00   0.352948E-03   0.000000E+00
 
 
 SOLVING FOR HEAD 
                                                   Max.-Head-Change                         Max.-Flux-Residual
  Residual-Control   Outer-Iter.   Inner-Iter.     Column Row Layer    Maximum-Head-Change  Column Row Layer    Maximum-Flux-Residual          L2-NORM 
          0                 1           2             1    4     1      -0.3226620222E-01       3    3    1        -0.7434574118E-03      0.1014276957E-01
          0                 2           2             1    1     1       0.2807441949E-02       3    3    1         0.7434537936E-04      0.9673927703E-03
          0                 3           2             1    1     1      -0.2240014358E-03       6    4    1         0.7116985238E-05      0.9387066283E-04
          0                 4           1             1    1     1       0.1600746335E-04       4    4    1        -0.9348459820E-06      0.8449914878E-05
          0                 5           1             1    1     1      -0.9968805620E-06       4    4    1         0.8673372776E-07      0.6542006150E-06

    ------------------------------------------------
       NWT REQUIRED            5 OUTER ITERATIONS 
       AND A TOTAL OF          8 INNER ITERATIONS.
    ------------------------------------------------

 NO OUTPUT CONTROL FOR STRESS PERIOD   44   TIME STEP   24
 
 WELLS WITH REDUCED PUMPING FOR STRESS PERIOD    44 TIME STEP    24
   LAY   ROW   COL         APPL.Q          ACT.Q        GW-HEAD       CELL-BOT
     1     3    50  -0.101000E+01  -0.316332E+00   0.417445E-03   0.000000E+00
     1     5    55  -0.101000E+01  -0.241433E+00   0.352968E-03   0.000000E+00
 
 
 SOLVING FOR HEAD 
                                                   Max.-Head-Change                         Max.-Flux-Residual
  Residual-Control   Outer-Iter.   Inner-Iter.     Column Row Layer    Maximum-Head-Change  Column Row Layer    Maximum-Flux-Residual          L2-NORM 
          0                 1           2             1    1     1      -0.3518227118E-01       1    3    1        -0.7561572194E-03      0.1030979242E-01
          0                 2           2             1    1     1       0.3101798682E-02       1    3    1         0.7560843783E-04      0.9982089530E-03
          0                 3           2             1    1     1      -0.2471137161E-03       1    4    1         0.7818025452E-05      0.9753222907E-04
          0                 4           1             1    1     1       0.1760590759E-04       1    4    1        -0.9963163699E-06      0.8798880731E-05
          0                 5           1             1    1     1      -0.1085502411E-05       2    4    1         0.9142107515E-07      0.6796850424E-06
          0                 6           1             1    1     1       0.5888281209E-07       2    4    1        -0.6522004270E-08      0.4432840109E-07

    ------------------------------------------------
       NWT REQUIRED            6 OUTER ITERATIONS 
       AND A TOTAL OF          9 INNER ITERATIONS.
    ------------------------------------------------

 NO OUTPUT CONTROL FOR STRESS PERIOD   44   TIME STEP   25
 
 WELLS WITH REDUCED PUMPING FOR STRESS PERIOD    44 TIME STEP    25
   LAY   ROW   COL         APPL.Q          ACT.Q        GW-HEAD       CELL-BOT
     1     3    50  -0.101001E+01  -0.316238E+00   0.417366E-03   0.000000E+00
     1     5    55  -0.101001E+01  -0.241440E+00   0.352971E-03   0.000000E+00
 
 
 SOLVING FOR HEAD 
                                                   Max.-Head-Change                         Max.-Flux-Residual
  Residual-Control   Outer-Iter.   Inner-Iter.     Column Row Layer    Maximum-Head-Change  Column Row Layer    Maximum-Flux-Residual          L2-NORM 
          0                 1           2             1    1     1      -0.3892576846E-01       1    5    1        -0.7512051584E-03      0.1042722695E-01
          0                 2           2             1    1     1       0.3423805505E-02       1    5    1         0.7511752667E-04      0.1010788744E-02
          0                 3           2             1    1     1      -0.2717500059E-03       1    4    1         0.7619146082E-05      0.9881712646E-04
          0                 4           1             1    1     1       0.1925094822E-04       1    4    1        -0.9889120989E-06      0.8931744132E-05
          0                 5           1             1    1     1      -0.1169556864E-05       2    4    1         0.9156824277E-07      0.6888996729E-06
          0                 6           1             1    1     1       0.6265082146E-07       2    4    1        -0.6568694033E-08      0.4492043928E-07

    ------------------------------------------------
       NWT REQUIRED            6 OUTER ITERATIONS 
       AND A TOTAL OF          9 INNER ITERATIONS.
    ------------------------------------------------

 NO OUTPUT CONTROL FOR STRESS PERIOD   44   TIME STEP   26
 
 WELLS WITH REDUCED PUMPING FOR STRESS PERIOD    44 TIME STEP    26
   LAY   ROW   COL         APPL.Q          ACT.Q        GW-HEAD       CELL-BOT
     1     3    50  -0.101001E+01  -0.316126E+00   0.417279E-03   0.000000E+00
     1     5    55  -0.101001E+01  -0.241441E+00   0.352973E-03   0.000000E+00
 
 
 SOLVING FOR HEAD 
                                                   Max.-Head-Change                         Max.-Flux-Residual
  Residual-Control   Outer-Iter.   Inner-Iter.     Column Row Layer    Maximum-Head-Change  Column Row Layer    Maximum-Flux-Residual          L2-NORM 
          0                 1           2             1    4     1      -0.4332663131E-01       1    5    1        -0.7562115784E-03      0.1057970779E-01
          0                 2           2             1    1     1       0.3798804875E-02       1    5    1         0.7562058908E-04      0.1022055093E-02
          0                 3           2             1    1     1      -0.3004171983E-03       1    4    1         0.7467983956E-05      0.9974355898E-04
          0                 4           1             1    1     1       0.2115857972E-04       1    4    1        -0.9875380869E-06      0.9029714084E-05
          0                 5           1             1    1     1      -0.1262087992E-05       2    4    1         0.9244463683E-07      0.6949478576E-06
          0                 6           1             1    1     1       0.6661529198E-07       2    4    1        -0.6653159801E-08      0.4530173583E-07

    ------------------------------------------------
       NWT REQUIRED            6 OUTER ITERATIONS 
       AND A TOTAL OF          9 INNER ITERATIONS.
    ------------------------------------------------

 NO OUTPUT CONTROL FOR STRESS PERIOD   44   TIME STEP   27
 
 WELLS WITH REDUCED PUMPING FOR STRESS PERIOD    44 TIME STEP    27
   LAY   ROW   COL         APPL.Q          ACT.Q        GW-HEAD       CELL-BOT
     1     3    50  -0.101000E+01  -0.315998E+00   0.417179E-03   0.000000E+00
     1     5    55  -0.101000E+01  -0.241438E+00   0.352971E-03   0.000000E+00
 
 
 SOLVING FOR HEAD 
                                                   Max.-Head-Change                         Max.-Flux-Residual
  Residual-Control   Outer-Iter.   Inner-Iter.     Column Row Layer    Maximum-Head-Change  Column Row Layer    Maximum-Flux-Residual          L2-NORM 
          0                 1           3             1    3     1      -0.4813160800E-01       1    5    1        -0.7660647955E-03      0.1073045291E-01
          0                 2           2             1    1     1       0.4217230195E-02       1    5    1         0.7660450335E-04      0.1037487001E-02
          0                 3           2             1    1     1      -0.3326477291E-03       1    4    1         0.7560196444E-05      0.1012702424E-03
          0                 4           1             1    1     1       0.2331462562E-04       1    4    1        -0.1002860593E-05      0.9181470402E-05
          0                 5           1             1    1     1      -0.1362189624E-05       2    4    1         0.9417895797E-07      0.7033735819E-06
          0                 6           1             1    1     1       0.7079256303E-07       2    4    1        -0.6776613048E-08      0.4574907309E-07

    ------------------------------------------------
       NWT REQUIRED            6 OUTER ITERATIONS 
       AND A TOTAL OF         10 INNER ITERATIONS.
    ------------------------------------------------

 NO OUTPUT CONTROL FOR STRESS PERIOD   44   TIME STEP   28
 
 WELLS WITH REDUCED PUMPING FOR STRESS PERIOD    44 TIME STEP    28
   LAY   ROW   COL         APPL.Q          ACT.Q        GW-HEAD       CELL-BOT
     1     3    50  -0.100998E+01  -0.315849E+00   0.417066E-03   0.000000E+00
     1     5    55  -0.100998E+01  -0.241427E+00   0.352967E-03   0.000000E+00
 
 
 SOLVING FOR HEAD 
                                                   Max.-Head-Change                         Max.-Flux-Residual
  Residual-Control   Outer-Iter.   Inner-Iter.     Column Row Layer    Maximum-Head-Change  Column Row Layer    Maximum-Flux-Residual          L2-NORM 
          0                 1           3             1    1     1      -0.5334267431E-01       1    5    1        -0.7736557293E-03      0.1086177039E-01
          0                 2           2             1    1     1       0.4671327697E-02       1    5    1         0.7736180294E-04      0.1051579962E-02
          0                 3           2             1    1     1      -0.3677219476E-03       1    4    1         0.7658073422E-05      0.1026542598E-03
          0                 4           1             1    1     1       0.2565646137E-04       1    4    1        -0.1016515100E-05      0.9316989006E-05
          0                 5           1             1    1     1      -0.1462199919E-05       2    4    1         0.9568168480E-07      0.7090707587E-06
          0                 6           1             1    1     1       0.7468565695E-07       2    4    1        -0.6871434977E-08      0.4596208987E-07

    ------------------------------------------------
       NWT REQUIRED            6 OUTER ITERATIONS 
       AND A TOTAL OF         10 INNER ITERATIONS.
    ------------------------------------------------

 NO OUTPUT CONTROL FOR STRESS PERIOD   44   TIME STEP   29
 
 WELLS WITH REDUCED PUMPING FOR STRESS PERIOD    44 TIME STEP    29
   LAY   ROW   COL         APPL.Q          ACT.Q        GW-HEAD       CELL-BOT
     1     3    50  -0.101001E+01  -0.315643E+00   0.416896E-03   0.000000E+00
     1     5    55  -0.101001E+01  -0.241382E+00   0.352922E-03   0.000000E+00
 
 
 SOLVING FOR HEAD 
                                                   Max.-Head-Change                         Max.-Flux-Residual
  Residual-Control   Outer-Iter.   Inner-Iter.     Column Row Layer    Maximum-Head-Change  Column Row Layer    Maximum-Flux-Residual          L2-NORM 
          0                 1           3             1    1     1      -0.5906825631E-01       1    5    1        -0.7787993061E-03      0.1098485881E-01
          0                 2           2             1    1     1       0.5162580354E-02       1    5    1         0.7787570282E-04      0.1064234343E-02
          0                 3           2             1    1     1      -0.4051573604E-03       3    4    1         0.7750551983E-05      0.1039452113E-03
          0                 4           1             1    1     1       0.2810941978E-04       1    4    1        -0.1030900425E-05      0.9448114493E-05
          0                 5           1             1    1     1      -0.1552648266E-05       2    4    1         0.9731605033E-07      0.7132375274E-06
          0                 6           1             1    1     1       0.7780573587E-07       2    4    1        -0.6959581356E-08      0.4603924064E-07

    ------------------------------------------------
       NWT REQUIRED            6 OUTER ITERATIONS 
       AND A TOTAL OF         10 INNER ITERATIONS.
    ------------------------------------------------

 NO OUTPUT CONTROL FOR STRESS PERIOD   44   TIME STEP   30
 
 WELLS WITH REDUCED PUMPING FOR STRESS PERIOD    44 TIME STEP    30
   LAY   ROW   COL         APPL.Q          ACT.Q        GW-HEAD       CELL-BOT
     1     3    50  -0.101014E+01  -0.315231E+00   0.416537E-03   0.000000E+00
     1     5    55  -0.101014E+01  -0.241150E+00   0.352700E-03   0.000000E+00
 



 STREAM LISTING     PERIOD     44   STEP       30

 LAYER ROW COL. STREAM  RCH.   FLOW INTO    STREAM     FLOW OUT OF   OVRLND.    DIRECT     STREAM      STREAM      STREAM     STREAM  STREAMBED   FLOW TO   CHNG. UNSAT. 
                SEG.NO.  NO.   STRM. RCH.    LOSS       STRM. RCH.   RUNOFF     PRECIP       ET         HEAD        DEPTH      WIDTH  CONDCTNC.   WAT. TAB.

   1    4    1     1     1    6.5100E+00  2.1034E-03   6.5079E+00  0.000E+00  0.000E+00  0.000E+00  1.41783E+02  1.933E+00  4.125E+00  8.645E-04  2.439E-03 -3.359E-04
   1    4    2     1     2    6.5079E+00  2.1029E-03   6.5058E+00  0.000E+00  0.000E+00  0.000E+00  1.41483E+02  1.933E+00  4.125E+00  8.644E-04  2.439E-03 -3.356E-04
   1    4    3     1     3    6.5058E+00  2.1024E-03   6.5037E+00  0.000E+00  0.000E+00  0.000E+00  1.41183E+02  1.933E+00  4.125E+00  8.643E-04  2.438E-03 -3.354E-04
   1    4    4     1     4    6.5037E+00  2.1018E-03   6.5016E+00  0.000E+00  0.000E+00  0.000E+00  1.40882E+02  1.932E+00  4.124E+00  8.642E-04  2.437E-03 -3.352E-04
   1    4    5     1     5    6.5016E+00  2.1013E-03   6.4995E+00  0.000E+00  0.000E+00  0.000E+00  1.40582E+02  1.932E+00  4.124E+00  8.641E-04  2.436E-03 -3.350E-04
   1    4    6     1     6    6.4995E+00  2.1008E-03   6.4974E+00  0.000E+00  0.000E+00  0.000E+00  1.40282E+02  1.932E+00  4.123E+00  8.640E-04  2.436E-03 -3.349E-04
   1    4    7     1     7    6.4974E+00  2.1002E-03   6.4953E+00  0.000E+00  0.000E+00  0.000E+00  1.39981E+02  1.931E+00  4.123E+00  8.639E-04  2.435E-03 -3.347E-04
   1    4    8     1     8    6.4953E+00  2.0997E-03   6.4932E+00  0.000E+00  0.000E+00  0.000E+00  1.39681E+02  1.931E+00  4.123E+00  8.637E-04  2.434E-03 -3.346E-04
   1    4    9     1     9    6.4932E+00  2.0992E-03   6.4911E+00  0.000E+00  0.000E+00  0.000E+00  1.39381E+02  1.931E+00  4.122E+00  8.636E-04  2.434E-03 -3.346E-04
   1    4   10     1    10    6.4911E+00  2.0986E-03   6.4890E+00  0.000E+00  0.000E+00  0.000E+00  1.39080E+02  1.930E+00  4.122E+00  8.635E-04  2.433E-03 -3.345E-04
   1    4   11     1    11    6.4890E+00  2.0981E-03   6.4869E+00  0.000E+00  0.000E+00  0.000E+00  1.38780E+02  1.930E+00  4.122E+00  8.634E-04  2.433E-03 -3.345E-04
   1    4   12     1    12    6.4869E+00  2.0976E-03   6.4848E+00  0.000E+00  0.000E+00  0.000E+00  1.38480E+02  1.930E+00  4.121E+00  8.633E-04  2.432E-03 -3.346E-04
   1    4   13     1    13    6.4848E+00  2.0971E-03   6.4827E+00  0.000E+00  0.000E+00  0.000E+00  1.38179E+02  1.929E+00  4.121E+00  8.632E-04  2.432E-03 -3.347E-04
   1    4   14     1    14    6.4827E+00  2.0965E-03   6.4806E+00  0.000E+00  0.000E+00  0.000E+00  1.37879E+02  1.929E+00  4.120E+00  8.631E-04  2.431E-03 -3.348E-04
   1    4   15     1    15    6.4806E+00  2.0960E-03   6.4785E+00  0.000E+00  0.000E+00  0.000E+00  1.37579E+02  1.929E+00  4.120E+00  8.630E-04  2.431E-03 -3.349E-04
   1    4   16     1    16    6.4785E+00  2.0955E-03   6.4764E+00  0.000E+00  0.000E+00  0.000E+00  1.37278E+02  1.928E+00  4.120E+00  8.629E-04  2.431E-03 -3.351E-04
   1    4   17     1    17    6.4764E+00  2.0949E-03   6.4743E+00  0.000E+00  0.000E+00  0.000E+00  1.36978E+02  1.928E+00  4.119E+00  8.628E-04  2.430E-03 -3.353E-04
   1    4   18     1    18    6.4743E+00  2.0944E-03   6.4722E+00  0.000E+00  0.000E+00  0.000E+00  1.36678E+02  1.928E+00  4.119E+00  8.627E-04  2.433E-03 -3.385E-04
   1    4   19     1    19    6.4722E+00  2.0939E-03   6.4701E+00  0.000E+00  0.000E+00  0.000E+00  1.36377E+02  1.927E+00  4.119E+00  8.626E-04  2.438E-03 -3.443E-04
   1    4   20     1    20    6.4701E+00  2.0933E-03   6.4680E+00  0.000E+00  0.000E+00  0.000E+00  1.36077E+02  1.927E+00  4.118E+00  8.625E-04  2.444E-03 -3.506E-04
   1    4   21     1    21    6.4680E+00  2.0928E-03   6.4659E+00  0.000E+00  0.000E+00  0.000E+00  1.35777E+02  1.927E+00  4.118E+00  8.624E-04  2.450E-03 -3.575E-04
   1    4   22     1    22    6.4659E+00  2.0923E-03   6.4638E+00  0.000E+00  0.000E+00  0.000E+00  1.35476E+02  1.926E+00  4.117E+00  8.623E-04  2.457E-03 -3.649E-04
   1    4   23     1    23    6.4638E+00  2.0917E-03   6.4618E+00  0.000E+00  0.000E+00  0.000E+00  1.35176E+02  1.926E+00  4.117E+00  8.622E-04  2.465E-03 -3.730E-04
   1    4   24     1    24    6.4618E+00  2.0912E-03   6.4597E+00  0.000E+00  0.000E+00  0.000E+00  1.34876E+02  1.926E+00  4.117E+00  8.621E-04  2.473E-03 -3.817E-04
   1    4   25     1    25    6.4597E+00  2.0907E-03   6.4576E+00  0.000E+00  0.000E+00  0.000E+00  1.34575E+02  1.925E+00  4.116E+00  8.620E-04  2.482E-03 -3.910E-04
   1    4   26     1    26    6.4576E+00  2.0902E-03   6.4555E+00  0.000E+00  0.000E+00  0.000E+00  1.34275E+02  1.925E+00  4.116E+00  8.619E-04  2.491E-03 -4.010E-04
   1    4   27     1    27    6.4555E+00  2.0896E-03   6.4534E+00  0.000E+00  0.000E+00  0.000E+00  1.33975E+02  1.925E+00  4.115E+00  8.618E-04  2.496E-03 -4.064E-04
   1    4   28     1    28    6.4534E+00  2.0891E-03   6.4513E+00  0.000E+00  0.000E+00  0.000E+00  1.33675E+02  1.925E+00  4.115E+00  8.617E-04  2.496E-03 -4.072E-04
   1    4   29     1    29    6.4513E+00  2.0886E-03   6.4492E+00  0.000E+00  0.000E+00  0.000E+00  1.33374E+02  1.924E+00  4.115E+00  8.615E-04  2.500E-03 -4.110E-04
   1    4   30     1    30    6.4492E+00  2.0880E-03   6.4471E+00  0.000E+00  0.000E+00  0.000E+00  1.33074E+02  1.924E+00  4.114E+00  8.614E-04  2.510E-03 -4.218E-04
   1    4   31     1    31    6.4471E+00  2.0875E-03   6.4450E+00  0.000E+00  0.000E+00  0.000E+00  1.32774E+02  1.924E+00  4.114E+00  8.613E-04  2.521E-03 -4.333E-04
   1    4   32     1    32    6.4450E+00  2.0870E-03   6.4430E+00  0.000E+00  0.000E+00  0.000E+00  1.32473E+02  1.923E+00  4.114E+00  8.612E-04  2.533E-03 -4.456E-04
   1    4   33     1    33    6.4430E+00  2.0864E-03   6.4409E+00  0.000E+00  0.000E+00  0.000E+00  1.32173E+02  1.923E+00  4.113E+00  8.611E-04  2.545E-03 -4.587E-04
   1    4   34     1    34    6.4409E+00  2.0859E-03   6.4388E+00  0.000E+00  0.000E+00  0.000E+00  1.31873E+02  1.923E+00  4.113E+00  8.610E-04  2.558E-03 -4.725E-04
   1    4   35     1    35    6.4388E+00  2.0854E-03   6.4367E+00  0.000E+00  0.000E+00  0.000E+00  1.31572E+02  1.922E+00  4.112E+00  8.609E-04  2.568E-03 -4.827E-04
   1    4   36     1    36    6.4367E+00  2.0849E-03   6.4346E+00  0.000E+00  0.000E+00  0.000E+00  1.31272E+02  1.922E+00  4.112E+00  8.608E-04  2.580E-03 -4.954E-04
   1    4   37     1    37    6.4346E+00  2.0843E-03   6.4325E+00  0.000E+00  0.000E+00  0.000E+00  1.30972E+02  1.922E+00  4.112E+00  8.607E-04  2.593E-03 -5.090E-04
   1    4   38     1    38    6.4325E+00  2.0838E-03   6.4304E+00  0.000E+00  0.000E+00  0.000E+00  1.30671E+02  1.921E+00  4.111E+00  8.606E-04  2.580E-03 -4.965E-04
   1    4   39     1    39    6.4304E+00  2.0833E-03   6.4284E+00  0.000E+00  0.000E+00  0.000E+00  1.30371E+02  1.921E+00  4.111E+00  8.605E-04  2.484E-03 -4.010E-04
   1    4   40     1    40    6.4284E+00  2.0827E-03   6.4263E+00  0.000E+00  0.000E+00  0.000E+00  1.30071E+02  1.921E+00  4.110E+00  8.604E-04  2.496E-03 -4.134E-04
   1    4   41     1    41    6.4263E+00  2.0822E-03   6.4242E+00  0.000E+00  0.000E+00  0.000E+00  1.29770E+02  1.920E+00  4.110E+00  8.603E-04  2.514E-03 -4.318E-04
   1    4   42     1    42    6.4242E+00  2.0817E-03   6.4221E+00  0.000E+00  0.000E+00  0.000E+00  1.29470E+02  1.920E+00  4.110E+00  8.602E-04  2.536E-03 -4.547E-04
   1    4   43     1    43    6.4221E+00  2.0812E-03   6.4200E+00  0.000E+00  0.000E+00  0.000E+00  1.29170E+02  1.920E+00  4.109E+00  8.601E-04  2.547E-03 -4.663E-04
   1    4   44     1    44    6.4200E+00  2.0806E-03   6.4180E+00  0.000E+00  0.000E+00  0.000E+00  1.28869E+02  1.919E+00  4.109E+00  8.600E-04  2.558E-03 -4.772E-04
   1    4   45     1    45    6.4180E+00  2.0801E-03   6.4159E+00  0.000E+00  0.000E+00  0.000E+00  1.28569E+02  1.919E+00  4.109E+00  8.599E-04  2.559E-03 -4.789E-04
   1    4   46     1    46    6.4159E+00  2.0796E-03   6.4138E+00  0.000E+00  0.000E+00  0.000E+00  1.28269E+02  1.919E+00  4.108E+00  8.598E-04  2.560E-03 -4.806E-04
   1    4   47     1    47    6.4138E+00  2.0790E-03   6.4117E+00  0.000E+00  0.000E+00  0.000E+00  1.27968E+02  1.918E+00  4.108E+00  8.597E-04  2.561E-03 -4.822E-04
   1    4   48     1    48    6.4117E+00  2.0785E-03   6.4096E+00  0.000E+00  0.000E+00  0.000E+00  1.27668E+02  1.918E+00  4.107E+00  8.596E-04  2.562E-03 -4.834E-04
   1    4   49     1    49    6.4096E+00  2.0780E-03   6.4076E+00  0.000E+00  0.000E+00  0.000E+00  1.27368E+02  1.918E+00  4.107E+00  8.595E-04  2.585E-03 -5.070E-04
   1    4   50     1    50    6.4076E+00  2.0775E-03   6.4055E+00  0.000E+00  0.000E+00  0.000E+00  1.27067E+02  1.917E+00  4.107E+00  8.594E-04  2.765E-03 -6.870E-04
   1    4   51     1    51    6.4055E+00  2.0769E-03   6.4034E+00  0.000E+00  0.000E+00  0.000E+00  1.26767E+02  1.917E+00  4.106E+00  8.592E-04  2.716E-03 -6.389E-04
   1    4   52     1    52    6.4034E+00  2.0764E-03   6.4013E+00  0.000E+00  0.000E+00  0.000E+00  1.26467E+02  1.917E+00  4.106E+00  8.591E-04  2.701E-03 -6.245E-04
   1    4   53     1    53    6.4013E+00  2.0759E-03   6.3992E+00  0.000E+00  0.000E+00  0.000E+00  1.26167E+02  1.917E+00  4.105E+00  8.590E-04  2.699E-03 -6.231E-04
   1    4   54     1    54    6.3992E+00  2.0754E-03   6.3972E+00  0.000E+00  0.000E+00  0.000E+00  1.25866E+02  1.916E+00  4.105E+00  8.589E-04  2.709E-03 -6.339E-04
   1    4   55     1    55    6.3972E+00  2.0748E-03   6.3951E+00  0.000E+00  0.000E+00  0.000E+00  1.25566E+02  1.916E+00  4.105E+00  8.588E-04  2.749E-03 -6.745E-04
   1    4   56     1    56    6.3951E+00  2.0743E-03   6.3930E+00  0.000E+00  0.000E+00  0.000E+00  1.25266E+02  1.916E+00  4.104E+00  8.587E-04  2.587E-03 -5.128E-04
   1    4   57     1    57    6.3930E+00  2.0738E-03   6.3910E+00  0.000E+00  0.000E+00  0.000E+00  1.24965E+02  1.915E+00  4.104E+00  8.586E-04  2.562E-03 -4.884E-04
   1    4   58     1    58    6.3910E+00  2.0732E-03   6.3889E+00  0.000E+00  0.000E+00  0.000E+00  1.24665E+02  1.915E+00  4.104E+00  8.585E-04  2.562E-03 -4.887E-04
   1    4   59     1    59    6.3889E+00  2.0727E-03   6.3868E+00  0.000E+00  0.000E+00  0.000E+00  1.24365E+02  1.915E+00  4.103E+00  8.584E-04  2.561E-03 -4.884E-04
   1    4   60     1    60    6.3868E+00  2.0722E-03   6.3847E+00  0.000E+00  0.000E+00  0.000E+00  1.24064E+02  1.914E+00  4.103E+00  8.583E-04  2.560E-03 -4.878E-04
   1    4   61     1    61    6.3847E+00  2.0717E-03   6.3827E+00  0.000E+00  0.000E+00  0.000E+00  1.23764E+02  1.914E+00  4.102E+00  8.582E-04  2.559E-03 -4.871E-04
   1    4   62     1    62    6.3827E+00  2.0711E-03   6.3806E+00  0.000E+00  0.000E+00  0.000E+00  1.23464E+02  1.914E+00  4.102E+00  8.581E-04  2.553E-03 -4.821E-04
   1    4   63     1    63    6.3806E+00  2.0706E-03   6.3785E+00  0.000E+00  0.000E+00  0.000E+00  1.23163E+02  1.913E+00  4.102E+00  8.580E-04  2.542E-03 -4.715E-04
   1    4   64     1    64    6.3785E+00  2.0701E-03   6.3764E+00  0.000E+00  0.000E+00  0.000E+00  1.22863E+02  1.913E+00  4.101E+00  8.579E-04  2.525E-03 -4.547E-04
   1    4   65     1    65    6.3764E+00  2.0696E-03   6.3744E+00  0.000E+00  0.000E+00  0.000E+00  1.22563E+02  1.913E+00  4.101E+00  8.578E-04  2.502E-03 -4.324E-04
   1    4   66     1    66    6.3744E+00  2.0690E-03   6.3723E+00  0.000E+00  0.000E+00  0.000E+00  1.22262E+02  1.912E+00  4.101E+00  8.577E-04  2.488E-03 -4.194E-04
   1    4   67     1    67    6.3723E+00  2.0685E-03   6.3702E+00  0.000E+00  0.000E+00  0.000E+00  1.21962E+02  1.912E+00  4.100E+00  8.576E-04  2.537E-03 -4.682E-04
   1    4   68     1    68    6.3702E+00  2.0680E-03   6.3682E+00  0.000E+00  0.000E+00  0.000E+00  1.21662E+02  1.912E+00  4.100E+00  8.575E-04  2.595E-03 -5.275E-04
   1    4   69     1    69    6.3682E+00  2.0675E-03   6.3661E+00  0.000E+00  0.000E+00  0.000E+00  1.21361E+02  1.911E+00  4.099E+00  8.574E-04  2.580E-03 -5.126E-04
   1    4   70     1    70    6.3661E+00  2.0669E-03   6.3640E+00  0.000E+00  0.000E+00  0.000E+00  1.21061E+02  1.911E+00  4.099E+00  8.573E-04  2.565E-03 -4.984E-04
   1    4   71     1    71    6.3640E+00  2.0664E-03   6.3620E+00  0.000E+00  0.000E+00  0.000E+00  1.20761E+02  1.911E+00  4.099E+00  8.572E-04  2.556E-03 -4.899E-04
   1    4   72     1    72    6.3620E+00  2.0659E-03   6.3599E+00  0.000E+00  0.000E+00  0.000E+00  1.20460E+02  1.910E+00  4.098E+00  8.571E-04  2.540E-03 -4.739E-04
   1    4   73     1    73    6.3599E+00  2.0654E-03   6.3578E+00  0.000E+00  0.000E+00  0.000E+00  1.20160E+02  1.910E+00  4.098E+00  8.570E-04  2.524E-03 -4.585E-04
   1    4   74     1    74    6.3578E+00  2.0648E-03   6.3558E+00  0.000E+00  0.000E+00  0.000E+00  1.19860E+02  1.910E+00  4.097E+00  8.568E-04  2.508E-03 -4.436E-04
   1    4   75     1    75    6.3558E+00  2.0643E-03   6.3537E+00  0.000E+00  0.000E+00  0.000E+00  1.19559E+02  1.909E+00  4.097E+00  8.567E-04  2.494E-03 -4.293E-04
   1    4   76     1    76    6.3537E+00  2.0638E-03   6.3516E+00  0.000E+00  0.000E+00  0.000E+00  1.19259E+02  1.909E+00  4.097E+00  8.566E-04  2.491E-03 -4.274E-04
   1    4   77     1    77    6.3516E+00  2.0633E-03   6.3496E+00  0.000E+00  0.000E+00  0.000E+00  1.18959E+02  1.909E+00  4.096E+00  8.565E-04  2.491E-03 -4.274E-04
   1    4   78     1    78    6.3496E+00  2.0627E-03   6.3475E+00  0.000E+00  0.000E+00  0.000E+00  1.18659E+02  1.909E+00  4.096E+00  8.564E-04  2.475E-03 -4.127E-04
   1    4   79     1    79    6.3475E+00  2.0622E-03   6.3455E+00  0.000E+00  0.000E+00  0.000E+00  1.18358E+02  1.908E+00  4.096E+00  8.563E-04  2.460E-03 -3.978E-04
   1    4   80     1    80    6.3455E+00  2.0617E-03   6.3434E+00  0.000E+00  0.000E+00  0.000E+00  1.18058E+02  1.908E+00  4.095E+00  8.562E-04  2.445E-03 -3.834E-04
   1    4   81     1    81    6.3434E+00  2.0612E-03   6.3413E+00  0.000E+00  0.000E+00  0.000E+00  1.17758E+02  1.908E+00  4.095E+00  8.561E-04  2.431E-03 -3.693E-04
   1    4   82     1    82    6.3413E+00  2.0606E-03   6.3393E+00  0.000E+00  0.000E+00  0.000E+00  1.17457E+02  1.907E+00  4.094E+00  8.560E-04  2.422E-03 -3.609E-04
   1    4   83     1    83    6.3393E+00  2.0601E-03   6.3372E+00  0.000E+00  0.000E+00  0.000E+00  1.17157E+02  1.907E+00  4.094E+00  8.559E-04  2.421E-03 -3.608E-04
   1    4   84     1    84    6.3372E+00  2.0596E-03   6.3352E+00  0.000E+00  0.000E+00  0.000E+00  1.16857E+02  1.907E+00  4.094E+00  8.558E-04  2.376E-03 -3.161E-04
   1    4   85     1    85    6.3352E+00  2.0591E-03   6.3331E+00  0.000E+00  0.000E+00  0.000E+00  1.16556E+02  1.906E+00  4.093E+00  8.557E-04  2.335E-03 -2.759E-04
   1    4   86     1    86    6.3331E+00  2.0586E-03   6.3310E+00  0.000E+00  0.000E+00  0.000E+00  1.16256E+02  1.906E+00  4.093E+00  8.556E-04  2.328E-03 -2.697E-04
   1    4   87     1    87    6.3310E+00  2.0580E-03   6.3290E+00  0.000E+00  0.000E+00  0.000E+00  1.15956E+02  1.906E+00  4.092E+00  8.555E-04  2.314E-03 -2.561E-04
   1    4   88     1    88    6.3290E+00  2.0575E-03   6.3269E+00  0.000E+00  0.000E+00  0.000E+00  1.15655E+02  1.905E+00  4.092E+00  8.554E-04  2.300E-03 -2.428E-04
   1    4   89     1    89    6.3269E+00  2.0570E-03   6.3249E+00  0.000E+00  0.000E+00  0.000E+00  1.15355E+02  1.905E+00  4.092E+00  8.553E-04  2.287E-03 -2.299E-04
   1    4   90     1    90    6.3249E+00  2.0565E-03   6.3228E+00  0.000E+00  0.000E+00  0.000E+00  1.15055E+02  1.905E+00  4.091E+00  8.552E-04  2.274E-03 -2.173E-04
   1    4   91     1    91    6.3228E+00  2.0559E-03   6.3208E+00  0.000E+00  0.000E+00  0.000E+00  1.14754E+02  1.904E+00  4.091E+00  8.551E-04  2.258E-03 -2.021E-04
   1    4   92     1    92    6.3208E+00  2.0554E-03   6.3187E+00  0.000E+00  0.000E+00  0.000E+00  1.14454E+02  1.904E+00  4.091E+00  8.550E-04  2.258E-03 -2.024E-04
   1    4   93     1    93    6.3187E+00  2.0549E-03   6.3166E+00  0.000E+00  0.000E+00  0.000E+00  1.14154E+02  1.904E+00  4.090E+00  8.549E-04  2.258E-03 -2.027E-04
   1    4   94     1    94    6.3166E+00  2.0544E-03   6.3146E+00  0.000E+00  0.000E+00  0.000E+00  1.13853E+02  1.903E+00  4.090E+00  8.548E-04  2.257E-03 -2.031E-04
   1    4   95     1    95    6.3146E+00  2.0538E-03   6.3125E+00  0.000E+00  0.000E+00  0.000E+00  1.13553E+02  1.903E+00  4.089E+00  8.547E-04  2.258E-03 -2.037E-04
   1    4   96     1    96    6.3125E+00  2.0533E-03   6.3105E+00  0.000E+00  0.000E+00  0.000E+00  1.13253E+02  1.903E+00  4.089E+00  8.546E-04  2.258E-03 -2.043E-04
   1    4   97     1    97    6.3105E+00  2.0528E-03   6.3084E+00  0.000E+00  0.000E+00  0.000E+00  1.12952E+02  1.902E+00  4.089E+00  8.545E-04  2.258E-03 -2.051E-04
   1    4   98     1    98    6.3084E+00  2.0523E-03   6.3064E+00  0.000E+00  0.000E+00  0.000E+00  1.12652E+02  1.902E+00  4.088E+00  8.544E-04  2.249E-03 -1.965E-04
   1    4   99     1    99    6.3064E+00  2.0518E-03   6.3043E+00  0.000E+00  0.000E+00  0.000E+00  1.12352E+02  1.902E+00  4.088E+00  8.542E-04  2.238E-03 -1.863E-04
   1    4  100     1   100    6.3043E+00  2.0512E-03   6.3023E+00  0.000E+00  0.000E+00  0.000E+00  1.12052E+02  1.902E+00  4.088E+00  8.541E-04  2.228E-03 -1.767E-04



1
  VOLUMETRIC BUDGET FOR UNSATURATED ZONE BENEATH STREAMS AT END OF TIME STEP    30 STRESS PERIOD  44
  ------------------------------------------------------------------------------------------------

    CUMULATIVE VOLUMES             L**3    RATES FOR THIS TIME STEP         L**3/T
    ------------------                     ------------------------


          STREAM LOSS =     34524552.0000            STREAM LOSS =            0.2077
    CHANGE IN STORAGE =      1752387.0000      CHANGE IN STORAGE =       -3.9841E-02
       RECHARGE TO GW =     32779960.0000         RECHARGE TO GW =            0.2476

             TOTAL IN =     34524552.0000               TOTAL IN =            0.2476

            TOTAL OUT =     34532348.0000              TOTAL OUT =            0.2476

             IN - OUT =        -7796.0000               IN - OUT =       -1.4305E-06

  PERCENT DISCREPANCY =           -0.01      PERCENT DISCREPANCY =            -0.00



1
  VOLUMETRIC BUDGET FOR ENTIRE MODEL AT END OF TIME STEP   30, STRESS PERIOD  44
  ------------------------------------------------------------------------------

     CUMULATIVE VOLUMES      L**3       RATES FOR THIS TIME STEP      L**3/T
     ------------------                 ------------------------

           IN:                                      IN:
           ---                                      ---
             STORAGE     =   114083208.0000               STORAGE     =           0.2272
       CONSTANT HEAD     =           0.0000         CONSTANT HEAD     =           0.0000
               WELLS     =           0.0000                 WELLS     =           0.0000
     HEAD DEP BOUNDS     =     2774817.5000       HEAD DEP BOUNDS     =       8.1568E-02
      STREAM LEAKAGE     =    32779522.0000        STREAM LEAKAGE     =           0.2476

                TOTAL IN =   149637552.0000                  TOTAL IN =           0.5564

          OUT:                                     OUT:
          ----                                     ----
             STORAGE     =     3105392.7500               STORAGE     =       3.7106E-06
       CONSTANT HEAD     =           0.0000         CONSTANT HEAD     =           0.0000
               WELLS     =   130172840.0000                 WELLS     =           0.5564
     HEAD DEP BOUNDS     =    16359348.0000       HEAD DEP BOUNDS     =           0.0000
      STREAM LEAKAGE     =           0.0000        STREAM LEAKAGE     =           0.0000

               TOTAL OUT =   149637584.0000                 TOTAL OUT =           0.5564

                IN - OUT =         -32.0000                  IN - OUT =           0.0000

     PERCENT DISCREPANCY =          -0.00         PERCENT DISCREPANCY =           0.00






         TIME SUMMARY AT END OF TIME STEP   30 IN STRESS PERIOD   44
                    SECONDS     MINUTES      HOURS       DAYS        YEARS
                    -----------------------------------------------------------
   TIME STEP LENGTH 2.49961E+05  4166.0      69.434      2.8931     7.92080E-03
 STRESS PERIOD TIME 2.59200E+06  43200.      720.00      30.000     8.21355E-02
         TOTAL TIME 1.14048E+08 1.90080E+06  31680.      1320.0      3.6140    
1
1
                            STRESS PERIOD NO.   45, LENGTH =   2592000.    
                            -----------------------------------------------

                              NUMBER OF TIME STEPS =    30

                               MULTIPLIER FOR DELT =     1.100

                            INITIAL TIME STEP SIZE =   15757.40    

 REUSING NON-PARAMETER WELLS FROM LAST STRESS PERIOD

      1 WELL 

 REUSING NON-PARAMETER GHB CELLS FROM LAST STRESS PERIOD

      7 GHB CELLS



 CLASSIFICATION & COUNT OF STREAM SEGMENTS BASED ON SOURCE OF INFLOW:

                HEADWATER     DIVERSION     RECEIVES TRIBUTARY FLOW
                ---------     ---------     -----------------------
                     1              0               0



                    INPUT DATA FOR EACH STREAM SEGMENT
 ---------------------------------------------------------------------------------------------

 SEGMENT    SEG.     INFLOW   OVERLAND   STREAM    STREAM   ICALC  OUTFLOW  DIVERSION PRIORITY
    NO.    LENGTH     RATE     RUNOFF      ET       PPT.    METH.  TO SEG.  FROM SEG.    NO.

      1  2.000E+04 3.430E+00 0.000E+00 0.000E+00 0.000E+00    2        0        0        0


         STREAMBED PROPERTIES AND STREAM DIMENSIONS

 SEGMENT     BED HYD. COND.      BED THICKNESS     ELEV.-TOP OF BED     WIDTH OF STREAM     DEPTH OF STREAM    STREAM ROUGHNESS
    No.     UPPER     LOWER     UPPER     LOWER     UPPER     LOWER     UPPER     LOWER     UPPER     LOWER   CHANNEL      BANK

     1  3.500E-07 3.500E-07                                                                                 3.000E-02 4.000E-02

  EIGHT POINT CROSS-SECTION DATA FOR SEGMENTS WITH ICALC = 2
    X VALUES X VALUES START FROM LEFT SIDE LOOKING DOWNSTREAM

     SEGMENT NO.        X1        X2        X3        X4        X5        X6        X7        X8
            1      0.000E+00 2.000E+00 4.000E+00 6.000E+00 8.000E+00 1.000E+01 1.200E+01 1.400E+01

    Z VALUES ARE RELATIVE TO STREAMBED ELEVATION

     SEGMENT NO.          Z1        Z2        Z3        Z4        Z5        Z6        Z7        Z8
            1      6.000E+00 4.500E+00 3.500E+00 0.000E+00 3.000E-01 3.500E+00 4.500E+00 6.000E+00



 
 SOLVING FOR HEAD 
                                                   Max.-Head-Change                         Max.-Flux-Residual
  Residual-Control   Outer-Iter.   Inner-Iter.     Column Row Layer    Maximum-Head-Change  Column Row Layer    Maximum-Flux-Residual          L2-NORM 
          0                 1           2             1    1     1      -0.3757076995E-02      50    3    1        -0.1310965807E+00      0.1654256627E+00
          0                 2           2             1    1     1       0.3636261258E-03      50    3    1         0.6351057221E-02      0.7544668849E-02
          0                 3           1             1    1     1      -0.3204828793E-04      50    3    1        -0.5967807819E-03      0.7079600106E-03
          0                 4           1             1    1     1       0.2530587834E-05      50    3    1         0.4758959137E-04      0.5648990845E-04
          0                 5           1             1    1     1      -0.1759503123E-06      50    3    1        -0.3346832105E-05      0.3973305604E-05

    ------------------------------------------------
       NWT REQUIRED            5 OUTER ITERATIONS 
       AND A TOTAL OF          7 INNER ITERATIONS.
    ------------------------------------------------

 NO OUTPUT CONTROL FOR STRESS PERIOD   45   TIME STEP    1
 
 WELLS WITH REDUCED PUMPING FOR STRESS PERIOD    45 TIME STEP     1
   LAY   ROW   COL         APPL.Q          ACT.Q        GW-HEAD       CELL-BOT
     1     3    50  -0.143024E+01  -0.315188E+00   0.339876E-03   0.000000E+00
     1     5    55  -0.143024E+01  -0.241114E+00   0.289499E-03   0.000000E+00
 
 
 SOLVING FOR HEAD 
                                                   Max.-Head-Change                         Max.-Flux-Residual
  Residual-Control   Outer-Iter.   Inner-Iter.     Column Row Layer    Maximum-Head-Change  Column Row Layer    Maximum-Flux-Residual          L2-NORM 
          0                 1           2             1    1     1      -0.4132506000E-02       1    3    1        -0.7834774124E-03      0.1103531677E-01
          0                 2           2             1    1     1       0.3987905752E-03       1    3    1         0.7834701548E-04      0.1078781476E-02
          0                 3           1             1    1     1      -0.3507087115E-04       1    3    1        -0.7051256411E-05      0.1004928964E-03
          0                 4           1             1    1     1       0.2765470114E-05       1    5    1         0.5648058448E-06      0.8235774419E-05
          0                 5           1             1    1     1      -0.1921446083E-06       1    4    1         0.4193058700E-07      0.5844727910E-06

    ------------------------------------------------
       NWT REQUIRED            5 OUTER ITERATIONS 
       AND A TOTAL OF          7 INNER ITERATIONS.
    ------------------------------------------------

 NO OUTPUT CONTROL FOR STRESS PERIOD   45   TIME STEP    2
 
 WELLS WITH REDUCED PUMPING FOR STRESS PERIOD    45 TIME STEP     2
   LAY   ROW   COL         APPL.Q          ACT.Q        GW-HEAD       CELL-BOT
     1     3    50  -0.143024E+01  -0.315128E+00   0.339839E-03   0.000000E+00
     1     5    55  -0.143024E+01  -0.241074E+00   0.289471E-03   0.000000E+00
 
 
 SOLVING FOR HEAD 
                                                   Max.-Head-Change                         Max.-Flux-Residual
  Residual-Control   Outer-Iter.   Inner-Iter.     Column Row Layer    Maximum-Head-Change  Column Row Layer    Maximum-Flux-Residual          L2-NORM 
          0                 1           2             1    1     1      -0.4544812169E-02       1    3    1        -0.7831074546E-03      0.1104009267E-01
          0                 2           2             1    1     1       0.4372015127E-03       1    3    1         0.7830994749E-04      0.1080176389E-02
          0                 3           1             1    1     1      -0.3835503983E-04       1    3    1        -0.7047924814E-05      0.1008860783E-03
          0                 4           1             1    1     1       0.3019565220E-05       1    4    1        -0.5757377508E-06      0.8297298080E-05
          0                 5           1             1    1     1      -0.2096109037E-06       1    4    1         0.4446859592E-07      0.5902853615E-06

    ------------------------------------------------
       NWT REQUIRED            5 OUTER ITERATIONS 
       AND A TOTAL OF          7 INNER ITERATIONS.
    ------------------------------------------------

 NO OUTPUT CONTROL FOR STRESS PERIOD   45   TIME STEP    3
 
 WELLS WITH REDUCED PUMPING FOR STRESS PERIOD    45 TIME STEP     3
   LAY   ROW   COL         APPL.Q          ACT.Q        GW-HEAD       CELL-BOT
     1     3    50  -0.142982E+01  -0.315078E+00   0.339866E-03   0.000000E+00
     1     5    55  -0.142982E+01  -0.241041E+00   0.289497E-03   0.000000E+00
 
 
 SOLVING FOR HEAD 
                                                   Max.-Head-Change                         Max.-Flux-Residual
  Residual-Control   Outer-Iter.   Inner-Iter.     Column Row Layer    Maximum-Head-Change  Column Row Layer    Maximum-Flux-Residual          L2-NORM 
          0                 1           2             1    1     1      -0.4997731738E-02       1    3    1        -0.7827906179E-03      0.1105230479E-01
          0                 2           2             1    1     1       0.4791687439E-03       1    3    1         0.7827818716E-04      0.1080590261E-02
          0                 3           1             1    1     1      -0.4192287999E-04       1    3    1        -0.7045071520E-05      0.1011672500E-03
          0                 4           1             1    1     1       0.3294232427E-05       1    4    1        -0.6024024266E-06      0.8353322640E-05
          0                 5           1             1    1     1      -0.2284222826E-06       1    4    1         0.4704873646E-07      0.5960608329E-06

    ------------------------------------------------
       NWT REQUIRED            5 OUTER ITERATIONS 
       AND A TOTAL OF          7 INNER ITERATIONS.
    ------------------------------------------------

 NO OUTPUT CONTROL FOR STRESS PERIOD   45   TIME STEP    4
 
 WELLS WITH REDUCED PUMPING FOR STRESS PERIOD    45 TIME STEP     4
   LAY   ROW   COL         APPL.Q          ACT.Q        GW-HEAD       CELL-BOT
     1     3    50  -0.143020E+01  -0.315032E+00   0.339785E-03   0.000000E+00
     1     5    55  -0.143020E+01  -0.241011E+00   0.289434E-03   0.000000E+00
 
 
 SOLVING FOR HEAD 
                                                   Max.-Head-Change                         Max.-Flux-Residual
  Residual-Control   Outer-Iter.   Inner-Iter.     Column Row Layer    Maximum-Head-Change  Column Row Layer    Maximum-Flux-Residual          L2-NORM 
          0                 1           2             2    1     1      -0.5505497902E-02       5    3    1        -0.7850752438E-03      0.1107815955E-01
          0                 2           2             2    1     1       0.5256675997E-03       5    3    1         0.7850698545E-04      0.1081797489E-02
          0                 3           1             1    1     1      -0.4583539641E-04       5    3    1        -0.7065671660E-05      0.1015276886E-03
          0                 4           1             1    1     1       0.3592713035E-05       1    4    1        -0.6235575505E-06      0.8418328305E-05
          0                 5           1             1    1     1      -0.2487222604E-06       1    4    1         0.4948299903E-07      0.6027305160E-06

    ------------------------------------------------
       NWT REQUIRED            5 OUTER ITERATIONS 
       AND A TOTAL OF          7 INNER ITERATIONS.
    ------------------------------------------------

 NO OUTPUT CONTROL FOR STRESS PERIOD   45   TIME STEP    5
 
 WELLS WITH REDUCED PUMPING FOR STRESS PERIOD    45 TIME STEP     5
   LAY   ROW   COL         APPL.Q          ACT.Q        GW-HEAD       CELL-BOT
     1     3    50  -0.143010E+01  -0.314986E+00   0.339770E-03   0.000000E+00
     1     5    55  -0.143010E+01  -0.240984E+00   0.289427E-03   0.000000E+00
 
 
 SOLVING FOR HEAD 
                                                   Max.-Head-Change                         Max.-Flux-Residual
  Residual-Control   Outer-Iter.   Inner-Iter.     Column Row Layer    Maximum-Head-Change  Column Row Layer    Maximum-Flux-Residual          L2-NORM 
          0                 1           2             2    1     1      -0.6075372763E-02       3    3    1        -0.7946729232E-03      0.1109955542E-01
          0                 2           2             2    1     1       0.5780412795E-03       3    3    1         0.7946614745E-04      0.1084944281E-02
          0                 3           1             3    1     1      -0.5024188303E-04       3    3    1        -0.7152004351E-05      0.1020920289E-03
          0                 4           1             3    1     1       0.3928448424E-05       3    4    1        -0.6558149828E-06      0.8500089335E-05
          0                 5           1             3    1     1      -0.2715136508E-06       3    4    1         0.5260222835E-07      0.6107263432E-06

    ------------------------------------------------
       NWT REQUIRED            5 OUTER ITERATIONS 
       AND A TOTAL OF          7 INNER ITERATIONS.
    ------------------------------------------------

 NO OUTPUT CONTROL FOR STRESS PERIOD   45   TIME STEP    6
 
 WELLS WITH REDUCED PUMPING FOR STRESS PERIOD    45 TIME STEP     6
   LAY   ROW   COL         APPL.Q          ACT.Q        GW-HEAD       CELL-BOT
     1     3    50  -0.142992E+01  -0.314941E+00   0.339767E-03   0.000000E+00
     1     5    55  -0.142992E+01  -0.240958E+00   0.289430E-03   0.000000E+00
 
 
 SOLVING FOR HEAD 
                                                   Max.-Head-Change                         Max.-Flux-Residual
  Residual-Control   Outer-Iter.   Inner-Iter.     Column Row Layer    Maximum-Head-Change  Column Row Layer    Maximum-Flux-Residual          L2-NORM 
          0                 1           2             1    1     1      -0.6701079983E-02       1    3    1        -0.7966022915E-03      0.1111272830E-01
          0                 2           2             1    1     1       0.6354021536E-03       1    3    1         0.7965891025E-04      0.1087139259E-02
          0                 3           1             1    1     1      -0.5504362455E-04       1    3    1        -0.7169360828E-05      0.1025572474E-03
          0                 4           1             1    1     1       0.4292149156E-05       1    4    1        -0.6837778841E-06      0.8574656413E-05
          0                 5           1             1    1     1      -0.2960807613E-06       1    4    1         0.5544380954E-07      0.6184156847E-06

    ------------------------------------------------
       NWT REQUIRED            5 OUTER ITERATIONS 
       AND A TOTAL OF          7 INNER ITERATIONS.
    ------------------------------------------------

 NO OUTPUT CONTROL FOR STRESS PERIOD   45   TIME STEP    7
 
 WELLS WITH REDUCED PUMPING FOR STRESS PERIOD    45 TIME STEP     7
   LAY   ROW   COL         APPL.Q          ACT.Q        GW-HEAD       CELL-BOT
     1     3    50  -0.142984E+01  -0.314894E+00   0.339749E-03   0.000000E+00
     1     5    55  -0.142984E+01  -0.240932E+00   0.289422E-03   0.000000E+00
 
 
 SOLVING FOR HEAD 
                                                   Max.-Head-Change                         Max.-Flux-Residual
  Residual-Control   Outer-Iter.   Inner-Iter.     Column Row Layer    Maximum-Head-Change  Column Row Layer    Maximum-Flux-Residual          L2-NORM 
          0                 1           2             1    1     1      -0.7381946813E-02       1    3    1        -0.7950192665E-03      0.1112440791E-01
          0                 2           2             1    1     1       0.6973916361E-03       1    3    1         0.7950048370E-04      0.1088361479E-02
          0                 3           1             1    1     1      -0.6020096971E-04       1    3    1        -0.7155109902E-05      0.1029235318E-03
          0                 4           1             1    1     1       0.4680406914E-05       1    4    1        -0.7094485106E-06      0.8642756693E-05
          0                 5           1             1    1     1      -0.3221556421E-06       1    4    1         0.5809468462E-07      0.6258778391E-06

    ------------------------------------------------
       NWT REQUIRED            5 OUTER ITERATIONS 
       AND A TOTAL OF          7 INNER ITERATIONS.
    ------------------------------------------------

 NO OUTPUT CONTROL FOR STRESS PERIOD   45   TIME STEP    8
 
 WELLS WITH REDUCED PUMPING FOR STRESS PERIOD    45 TIME STEP     8
   LAY   ROW   COL         APPL.Q          ACT.Q        GW-HEAD       CELL-BOT
     1     3    50  -0.142987E+01  -0.314846E+00   0.339714E-03   0.000000E+00
     1     5    55  -0.142987E+01  -0.240906E+00   0.289400E-03   0.000000E+00
 
 
 SOLVING FOR HEAD 
                                                   Max.-Head-Change                         Max.-Flux-Residual
  Residual-Control   Outer-Iter.   Inner-Iter.     Column Row Layer    Maximum-Head-Change  Column Row Layer    Maximum-Flux-Residual          L2-NORM 
          0                 1           2             1    1     1      -0.8123590627E-02       1    3    1        -0.7932753493E-03      0.1113374554E-01
          0                 2           2             1    1     1       0.7644594332E-03       1    3    1         0.7932603112E-04      0.1089670097E-02
          0                 3           1             1    1     1      -0.6573796212E-04       1    3    1        -0.7139417729E-05      0.1032970052E-03
          0                 4           1             1    1     1       0.5093918688E-05       1    4    1        -0.7334496210E-06      0.8712161910E-05
          0                 5           1             1    1     1      -0.3497228295E-06       1    4    1         0.6067058678E-07      0.6336202189E-06

    ------------------------------------------------
       NWT REQUIRED            5 OUTER ITERATIONS 
       AND A TOTAL OF          7 INNER ITERATIONS.
    ------------------------------------------------

 NO OUTPUT CONTROL FOR STRESS PERIOD   45   TIME STEP    9
 
 WELLS WITH REDUCED PUMPING FOR STRESS PERIOD    45 TIME STEP     9
   LAY   ROW   COL         APPL.Q          ACT.Q        GW-HEAD       CELL-BOT
     1     3    50  -0.142994E+01  -0.314796E+00   0.339674E-03   0.000000E+00
     1     5    55  -0.142994E+01  -0.240881E+00   0.289375E-03   0.000000E+00
 
 
 SOLVING FOR HEAD 
                                                   Max.-Head-Change                         Max.-Flux-Residual
  Residual-Control   Outer-Iter.   Inner-Iter.     Column Row Layer    Maximum-Head-Change  Column Row Layer    Maximum-Flux-Residual          L2-NORM 
          0                 1           2             1    1     1      -0.8934249765E-02       1    3    1        -0.7921830798E-03      0.1114459849E-01
          0                 2           2             1    1     1       0.8373480243E-03       1    3    1         0.7921671493E-04      0.1090560154E-02
          0                 3           1             1    1     1      -0.7171296890E-04       1    3    1        -0.7129589189E-05      0.1036149546E-03
          0                 4           1             1    1     1       0.5536615575E-05       1    4    1        -0.7567581761E-06      0.8777882424E-05
          0                 5           1             1    1     1      -0.3790075137E-06       1    4    1         0.6322107637E-07      0.6413089553E-06

    ------------------------------------------------
       NWT REQUIRED            5 OUTER ITERATIONS 
       AND A TOTAL OF          7 INNER ITERATIONS.
    ------------------------------------------------

 NO OUTPUT CONTROL FOR STRESS PERIOD   45   TIME STEP   10
 
 WELLS WITH REDUCED PUMPING FOR STRESS PERIOD    45 TIME STEP    10
   LAY   ROW   COL         APPL.Q          ACT.Q        GW-HEAD       CELL-BOT
     1     3    50  -0.142988E+01  -0.314742E+00   0.339649E-03   0.000000E+00
     1     5    55  -0.142988E+01  -0.240854E+00   0.289364E-03   0.000000E+00
 
 
 SOLVING FOR HEAD 
                                                   Max.-Head-Change                         Max.-Flux-Residual
  Residual-Control   Outer-Iter.   Inner-Iter.     Column Row Layer    Maximum-Head-Change  Column Row Layer    Maximum-Flux-Residual          L2-NORM 
          0                 1           2             1    1     1      -0.9822574543E-02       1    3    1        -0.7914993809E-03      0.1115172440E-01
          0                 2           2             1    1     1       0.9168097216E-03       1    3    1         0.7914822583E-04      0.1091828247E-02
          0                 3           1             1    1     1      -0.7818319246E-04       1    3    1        -0.7123436433E-05      0.1039835791E-03
          0                 4           1             1    1     1       0.6012191595E-05       1    4    1        -0.7793751848E-06      0.8847642484E-05
          0                 5           1             1    1     1      -0.4102096850E-06       1    4    1         0.6573537448E-07      0.6493687159E-06

    ------------------------------------------------
       NWT REQUIRED            5 OUTER ITERATIONS 
       AND A TOTAL OF          7 INNER ITERATIONS.
    ------------------------------------------------

 NO OUTPUT CONTROL FOR STRESS PERIOD   45   TIME STEP   11
 
 WELLS WITH REDUCED PUMPING FOR STRESS PERIOD    45 TIME STEP    11
   LAY   ROW   COL         APPL.Q          ACT.Q        GW-HEAD       CELL-BOT
     1     3    50  -0.143005E+01  -0.314684E+00   0.339590E-03   0.000000E+00
     1     5    55  -0.143005E+01  -0.240826E+00   0.289326E-03   0.000000E+00
 
 
 SOLVING FOR HEAD 
                                                   Max.-Head-Change                         Max.-Flux-Residual
  Residual-Control   Outer-Iter.   Inner-Iter.     Column Row Layer    Maximum-Head-Change  Column Row Layer    Maximum-Flux-Residual          L2-NORM 
          0                 1           2             1    1     1      -0.1079747955E-01       1    3    1        -0.7910106824E-03      0.1116605106E-01
          0                 2           2             1    1     1       0.1003618448E-02       1    3    1         0.7909921412E-04      0.1091704702E-02
          0                 3           1             1    1     1      -0.8520641523E-04       1    3    1        -0.7119037946E-05      0.1040759536E-03
          0                 4           1             1    1     1       0.6524225522E-05       1    4    1        -0.8012248109E-06      0.8892423998E-05
          0                 5           1             1    1     1      -0.4435098904E-06       1    4    1         0.6819904996E-07      0.6560056414E-06

    ------------------------------------------------
       NWT REQUIRED            5 OUTER ITERATIONS 
       AND A TOTAL OF          7 INNER ITERATIONS.
    ------------------------------------------------

 NO OUTPUT CONTROL FOR STRESS PERIOD   45   TIME STEP   12
 
 WELLS WITH REDUCED PUMPING FOR STRESS PERIOD    45 TIME STEP    12
   LAY   ROW   COL         APPL.Q          ACT.Q        GW-HEAD       CELL-BOT
     1     3    50  -0.143007E+01  -0.314621E+00   0.339548E-03   0.000000E+00
     1     5    55  -0.143007E+01  -0.240796E+00   0.289304E-03   0.000000E+00
 
 
 SOLVING FOR HEAD 
                                                   Max.-Head-Change                         Max.-Flux-Residual
  Residual-Control   Outer-Iter.   Inner-Iter.     Column Row Layer    Maximum-Head-Change  Column Row Layer    Maximum-Flux-Residual          L2-NORM 
          0                 1           2             5    4     1      -0.1196319785E-01       1    6    1        -0.7906052758E-03      0.1120164343E-01
          0                 2           2             5    1     1       0.1103055443E-02       1    6    1         0.7905942535E-04      0.1092763832E-02
          0                 3           1             4    1     1      -0.9324657087E-04       1    2    1        -0.7115446003E-05      0.1042636754E-03
          0                 4           1             4    1     1       0.7102501160E-05       2    4    1        -0.8253922985E-06      0.8945432575E-05
          0                 5           1             4    1     1      -0.4801961510E-06       2    4    1         0.7089017018E-07      0.6633543709E-06

    ------------------------------------------------
       NWT REQUIRED            5 OUTER ITERATIONS 
       AND A TOTAL OF          7 INNER ITERATIONS.
    ------------------------------------------------

 NO OUTPUT CONTROL FOR STRESS PERIOD   45   TIME STEP   13
 
 WELLS WITH REDUCED PUMPING FOR STRESS PERIOD    45 TIME STEP    13
   LAY   ROW   COL         APPL.Q          ACT.Q        GW-HEAD       CELL-BOT
     1     3    50  -0.143007E+01  -0.314554E+00   0.339506E-03   0.000000E+00
     1     5    55  -0.143007E+01  -0.240765E+00   0.289283E-03   0.000000E+00
 
 
 SOLVING FOR HEAD 
                                                   Max.-Head-Change                         Max.-Flux-Residual
  Residual-Control   Outer-Iter.   Inner-Iter.     Column Row Layer    Maximum-Head-Change  Column Row Layer    Maximum-Flux-Residual          L2-NORM 
          0                 1           2             3    4     1      -0.1316676749E-01       5    3    1        -0.8022169665E-03      0.1123469221E-01
          0                 2           2             4    1     1       0.1215203233E-02       5    3    1         0.8021918855E-04      0.1096712973E-02
          0                 3           1             4    1     1      -0.1023134779E-03       5    3    1        -0.7219872884E-05      0.1047931193E-03
          0                 4           1             4    1     1       0.7758014648E-05       5    4    1        -0.8134062597E-06      0.9024621306E-05
          0                 5           1             4    1     1      -0.5222301598E-06       5    4    1         0.7140567604E-07      0.6724206784E-06

    ------------------------------------------------
       NWT REQUIRED            5 OUTER ITERATIONS 
       AND A TOTAL OF          7 INNER ITERATIONS.
    ------------------------------------------------

 NO OUTPUT CONTROL FOR STRESS PERIOD   45   TIME STEP   14
 
 WELLS WITH REDUCED PUMPING FOR STRESS PERIOD    45 TIME STEP    14
   LAY   ROW   COL         APPL.Q          ACT.Q        GW-HEAD       CELL-BOT
     1     3    50  -0.143003E+01  -0.314480E+00   0.339467E-03   0.000000E+00
     1     5    55  -0.143003E+01  -0.240731E+00   0.289265E-03   0.000000E+00
 
 
 SOLVING FOR HEAD 
                                                   Max.-Head-Change                         Max.-Flux-Residual
  Residual-Control   Outer-Iter.   Inner-Iter.     Column Row Layer    Maximum-Head-Change  Column Row Layer    Maximum-Flux-Residual          L2-NORM 
          0                 1           2             1    4     1      -0.1459890066E-01       3    3    1        -0.8045056818E-03      0.1126041249E-01
          0                 2           2             3    1     1       0.1336078359E-02       3    3    1         0.8044789601E-04      0.1099536367E-02
          0                 3           2             3    1     1      -0.1120130020E-03       3    5    1        -0.7240473868E-05      0.1052480306E-03
          0                 4           1             3    1     1       0.8458400230E-05       3    4    1        -0.8365602859E-06      0.9105468897E-05
          0                 5           1             4    1     1      -0.5667705327E-06       3    4    1         0.7398197610E-07      0.6816228704E-06

    ------------------------------------------------
       NWT REQUIRED            5 OUTER ITERATIONS 
       AND A TOTAL OF          8 INNER ITERATIONS.
    ------------------------------------------------

 NO OUTPUT CONTROL FOR STRESS PERIOD   45   TIME STEP   15
 
 WELLS WITH REDUCED PUMPING FOR STRESS PERIOD    45 TIME STEP    15
   LAY   ROW   COL         APPL.Q          ACT.Q        GW-HEAD       CELL-BOT
     1     3    50  -0.143003E+01  -0.314400E+00   0.339417E-03   0.000000E+00
     1     5    55  -0.143003E+01  -0.240695E+00   0.289240E-03   0.000000E+00
 
 
 SOLVING FOR HEAD 
                                                   Max.-Head-Change                         Max.-Flux-Residual
  Residual-Control   Outer-Iter.   Inner-Iter.     Column Row Layer    Maximum-Head-Change  Column Row Layer    Maximum-Flux-Residual          L2-NORM 
          0                 1           2             1    1     1      -0.1602001694E-01       1    3    1        -0.8086830212E-03      0.1127872431E-01
          0                 2           2             1    1     1       0.1469490191E-02       1    3    1         0.8086506993E-04      0.1102104030E-02
          0                 3           2             1    1     1      -0.1226596527E-03       1    3    1        -0.7278041849E-05      0.1056802859E-03
          0                 4           1             1    1     1       0.9218222721E-05       1    4    1        -0.8569830747E-06      0.9178201649E-05
          0                 5           1             1    1     1      -0.6145862571E-06       2    4    1         0.7639369315E-07      0.6901134346E-06

    ------------------------------------------------
       NWT REQUIRED            5 OUTER ITERATIONS 
       AND A TOTAL OF          8 INNER ITERATIONS.
    ------------------------------------------------

 NO OUTPUT CONTROL FOR STRESS PERIOD   45   TIME STEP   16
 
 WELLS WITH REDUCED PUMPING FOR STRESS PERIOD    45 TIME STEP    16
   LAY   ROW   COL         APPL.Q          ACT.Q        GW-HEAD       CELL-BOT
     1     3    50  -0.143003E+01  -0.314312E+00   0.339363E-03   0.000000E+00
     1     5    55  -0.143003E+01  -0.240655E+00   0.289214E-03   0.000000E+00
 
 
 SOLVING FOR HEAD 
                                                   Max.-Head-Change                         Max.-Flux-Residual
  Residual-Control   Outer-Iter.   Inner-Iter.     Column Row Layer    Maximum-Head-Change  Column Row Layer    Maximum-Flux-Residual          L2-NORM 
          0                 1           2             1    1     1      -0.1762600047E-01       1    3    1        -0.8052869220E-03      0.1129309012E-01
          0                 2           2             1    1     1       0.1611146430E-02       1    3    1         0.8052552518E-04      0.1103630692E-02
          0                 3           2             1    1     1      -0.1339077208E-03       1    3    1        -0.7247499262E-05      0.1059856789E-03
          0                 4           1             1    1     1       0.1001520390E-04       1    4    1        -0.8750748890E-06      0.9239271723E-05
          0                 5           1             1    1     1      -0.6641304509E-06       1    4    1         0.7841956418E-07      0.6976907930E-06

    ------------------------------------------------
       NWT REQUIRED            5 OUTER ITERATIONS 
       AND A TOTAL OF          8 INNER ITERATIONS.
    ------------------------------------------------

 NO OUTPUT CONTROL FOR STRESS PERIOD   45   TIME STEP   17
 
 WELLS WITH REDUCED PUMPING FOR STRESS PERIOD    45 TIME STEP    17
   LAY   ROW   COL         APPL.Q          ACT.Q        GW-HEAD       CELL-BOT
     1     3    50  -0.143006E+01  -0.314214E+00   0.339298E-03   0.000000E+00
     1     5    55  -0.143006E+01  -0.240612E+00   0.289181E-03   0.000000E+00
 
 
 SOLVING FOR HEAD 
                                                   Max.-Head-Change                         Max.-Flux-Residual
  Residual-Control   Outer-Iter.   Inner-Iter.     Column Row Layer    Maximum-Head-Change  Column Row Layer    Maximum-Flux-Residual          L2-NORM 
          0                 1           2             1    1     1      -0.1942643812E-01       1    3    1        -0.8033127313E-03      0.1132239306E-01
          0                 2           2             1    1     1       0.1770293532E-02       1    3    1         0.8032906740E-04      0.1104217880E-02
          0                 3           2             1    1     1      -0.1465108301E-03       1    3    1        -0.7229835393E-05      0.1060450520E-03
          0                 4           1             1    1     1       0.1090087525E-04       1    4    1        -0.8750523470E-06      0.9274810594E-05
          0                 5           1             1    1     1      -0.7182504815E-06       1    4    1         0.7934496438E-07      0.7033693386E-06

    ------------------------------------------------
       NWT REQUIRED            5 OUTER ITERATIONS 
       AND A TOTAL OF          8 INNER ITERATIONS.
    ------------------------------------------------

 NO OUTPUT CONTROL FOR STRESS PERIOD   45   TIME STEP   18
 
 WELLS WITH REDUCED PUMPING FOR STRESS PERIOD    45 TIME STEP    18
   LAY   ROW   COL         APPL.Q          ACT.Q        GW-HEAD       CELL-BOT
     1     3    50  -0.143005E+01  -0.314105E+00   0.339232E-03   0.000000E+00
     1     5    55  -0.143005E+01  -0.240562E+00   0.289150E-03   0.000000E+00
 
 
 SOLVING FOR HEAD 
                                                   Max.-Head-Change                         Max.-Flux-Residual
  Residual-Control   Outer-Iter.   Inner-Iter.     Column Row Layer    Maximum-Head-Change  Column Row Layer    Maximum-Flux-Residual          L2-NORM 
          0                 1           2             1    1     1      -0.2147245353E-01       2    5    1        -0.8064429174E-03      0.1136335732E-01
          0                 2           2             1    1     1       0.1949252381E-02       2    3    1         0.8064220750E-04      0.1107398070E-02
          0                 3           2             1    1     1      -0.1605580625E-03       2    3    1        -0.7258029893E-05      0.1064283850E-03
          0                 4           1             1    1     1       0.1188053902E-04       3    4    1        -0.8873156752E-06      0.9338723774E-05
          0                 5           1             1    1     1      -0.7774797916E-06       2    4    1         0.8127378237E-07      0.7108807347E-06

    ------------------------------------------------
       NWT REQUIRED            5 OUTER ITERATIONS 
       AND A TOTAL OF          8 INNER ITERATIONS.
    ------------------------------------------------

 NO OUTPUT CONTROL FOR STRESS PERIOD   45   TIME STEP   19
 
 WELLS WITH REDUCED PUMPING FOR STRESS PERIOD    45 TIME STEP    19
   LAY   ROW   COL         APPL.Q          ACT.Q        GW-HEAD       CELL-BOT
     1     3    50  -0.142997E+01  -0.313985E+00   0.339169E-03   0.000000E+00
     1     5    55  -0.142997E+01  -0.240508E+00   0.289122E-03   0.000000E+00
 
 
 SOLVING FOR HEAD 
                                                   Max.-Head-Change                         Max.-Flux-Residual
  Residual-Control   Outer-Iter.   Inner-Iter.     Column Row Layer    Maximum-Head-Change  Column Row Layer    Maximum-Flux-Residual          L2-NORM 
          0                 1           2             1    1     1      -0.2364205309E-01       1    3    1        -0.8125915998E-03      0.1139924748E-01
          0                 2           2             1    1     1       0.2140481615E-02       1    3    1         0.8125497470E-04      0.1112167435E-02
          0                 3           2             1    1     1      -0.1756735564E-03       1    3    1        -0.7313230824E-05      0.1070399703E-03
          0                 4           1             1    1     1       0.1294047541E-04       1    4    1        -0.9156084957E-06      0.9421362057E-05
          0                 5           1             1    1     1      -0.8414375424E-06       2    4    1         0.8389975648E-07      0.7193456762E-06

    ------------------------------------------------
       NWT REQUIRED            5 OUTER ITERATIONS 
       AND A TOTAL OF          8 INNER ITERATIONS.
    ------------------------------------------------

 NO OUTPUT CONTROL FOR STRESS PERIOD   45   TIME STEP   20
 
 WELLS WITH REDUCED PUMPING FOR STRESS PERIOD    45 TIME STEP    20
   LAY   ROW   COL         APPL.Q          ACT.Q        GW-HEAD       CELL-BOT
     1     3    50  -0.142996E+01  -0.313842E+00   0.339082E-03   0.000000E+00
     1     5    55  -0.142996E+01  -0.240438E+00   0.289076E-03   0.000000E+00
 
 
 SOLVING FOR HEAD 
                                                   Max.-Head-Change                         Max.-Flux-Residual
  Residual-Control   Outer-Iter.   Inner-Iter.     Column Row Layer    Maximum-Head-Change  Column Row Layer    Maximum-Flux-Residual          L2-NORM 
          0                 1           2             1    1     1      -0.2598595791E-01       1    3    1        -0.8103891921E-03      0.1144423635E-01
          0                 2           2             1    1     1       0.2345327924E-02       1    3    1         0.8103468316E-04      0.1115734699E-02
          0                 3           2             1    1     1      -0.1916970434E-03       1    3    1        -0.7293431558E-05      0.1074167956E-03
          0                 4           1             1    1     1       0.1404908772E-04       1    4    1        -0.9288826419E-06      0.9479458392E-05
          0                 5           1             1    1     1      -0.9066218507E-06       2    4    1         0.8552417796E-07      0.7256340158E-06

    ------------------------------------------------
       NWT REQUIRED            5 OUTER ITERATIONS 
       AND A TOTAL OF          8 INNER ITERATIONS.
    ------------------------------------------------

 NO OUTPUT CONTROL FOR STRESS PERIOD   45   TIME STEP   21
 
 WELLS WITH REDUCED PUMPING FOR STRESS PERIOD    45 TIME STEP    21
   LAY   ROW   COL         APPL.Q          ACT.Q        GW-HEAD       CELL-BOT
     1     3    50  -0.143000E+01  -0.313681E+00   0.338977E-03   0.000000E+00
     1     5    55  -0.143000E+01  -0.240357E+00   0.289017E-03   0.000000E+00
 
 
 SOLVING FOR HEAD 
                                                   Max.-Head-Change                         Max.-Flux-Residual
  Residual-Control   Outer-Iter.   Inner-Iter.     Column Row Layer    Maximum-Head-Change  Column Row Layer    Maximum-Flux-Residual          L2-NORM 
          0                 1           2             1    1     1      -0.2854820497E-01       1    3    1        -0.8090711263E-03      0.1149782828E-01
          0                 2           2             1    1     1       0.2568616535E-02       1    3    1         0.8090262623E-04      0.1119140672E-02
          0                 3           2             1    1     1      -0.2090902022E-03       1    3    1        -0.7281578387E-05      0.1077355043E-03
          0                 4           1             1    1     1       0.1524443749E-04       1    4    1        -0.9402978165E-06      0.9531509700E-05
          0                 5           1             1    1     1      -0.9754194392E-06       2    4    1         0.8700056497E-07      0.7311572804E-06

    ------------------------------------------------
       NWT REQUIRED            5 OUTER ITERATIONS 
       AND A TOTAL OF          8 INNER ITERATIONS.
    ------------------------------------------------

 NO OUTPUT CONTROL FOR STRESS PERIOD   45   TIME STEP   22
 
 WELLS WITH REDUCED PUMPING FOR STRESS PERIOD    45 TIME STEP    22
   LAY   ROW   COL         APPL.Q          ACT.Q        GW-HEAD       CELL-BOT
     1     3    50  -0.142999E+01  -0.313495E+00   0.338863E-03   0.000000E+00
     1     5    55  -0.142999E+01  -0.240260E+00   0.288953E-03   0.000000E+00
 
 
 SOLVING FOR HEAD 
                                                   Max.-Head-Change                         Max.-Flux-Residual
  Residual-Control   Outer-Iter.   Inner-Iter.     Column Row Layer    Maximum-Head-Change  Column Row Layer    Maximum-Flux-Residual          L2-NORM 
          0                 1           2             1    1     1      -0.3136235491E-01       1    1    1        -0.8080739171E-03      0.1155882128E-01
          0                 2           2             1    1     1       0.2813741008E-02       1    1    1         0.8080426003E-04      0.1123040195E-02
          0                 3           2             1    1     1      -0.2281494009E-03       1    4    1         0.7280175669E-05      0.1080673624E-03
          0                 4           1             1    1     1       0.1654824287E-04       1    4    1        -0.9511561032E-06      0.9582783258E-05
          0                 5           1             1    1     1      -0.1048708959E-05       2    4    1         0.8816414621E-07      0.7361536984E-06
          0                 6           1             1    1     1       0.5804010820E-07       2    4    1        -0.6373433337E-08      0.4793960135E-07

    ------------------------------------------------
       NWT REQUIRED            6 OUTER ITERATIONS 
       AND A TOTAL OF          9 INNER ITERATIONS.
    ------------------------------------------------

 NO OUTPUT CONTROL FOR STRESS PERIOD   45   TIME STEP   23
 
 WELLS WITH REDUCED PUMPING FOR STRESS PERIOD    45 TIME STEP    23
   LAY   ROW   COL         APPL.Q          ACT.Q        GW-HEAD       CELL-BOT
     1     3    50  -0.143003E+01  -0.313290E+00   0.338731E-03   0.000000E+00
     1     5    55  -0.143003E+01  -0.240152E+00   0.288876E-03   0.000000E+00
 
 
 SOLVING FOR HEAD 
                                                   Max.-Head-Change                         Max.-Flux-Residual
  Residual-Control   Outer-Iter.   Inner-Iter.     Column Row Layer    Maximum-Head-Change  Column Row Layer    Maximum-Flux-Residual          L2-NORM 
          0                 1           2             4    4     1      -0.3587617154E-01       1    7    1        -0.8072164407E-03      0.1178550157E-01
          0                 2           2             2    1     1       0.3154840917E-02       1    7    1         0.8072680068E-04      0.1125612137E-02
          0                 3           2             2    1     1      -0.2546239154E-03       1    7    1        -0.7265690909E-05      0.1072770396E-03
          0                 4           1             1    1     1       0.1834389248E-04       1    4    1        -0.8834194460E-06      0.9514059850E-05
          0                 5           1             1    1     1      -0.1146688034E-05       2    4    1         0.8492857972E-07      0.7321978777E-06
          0                 6           1             1    1     1       0.6256120866E-07       2    4    1        -0.6270187924E-08      0.4785606321E-07

    ------------------------------------------------
       NWT REQUIRED            6 OUTER ITERATIONS 
       AND A TOTAL OF          9 INNER ITERATIONS.
    ------------------------------------------------

 NO OUTPUT CONTROL FOR STRESS PERIOD   45   TIME STEP   24
 
 WELLS WITH REDUCED PUMPING FOR STRESS PERIOD    45 TIME STEP    24
   LAY   ROW   COL         APPL.Q          ACT.Q        GW-HEAD       CELL-BOT
     1     3    50  -0.142999E+01  -0.313068E+00   0.338599E-03   0.000000E+00
     1     5    55  -0.142999E+01  -0.240037E+00   0.288803E-03   0.000000E+00
 
 
 SOLVING FOR HEAD 
                                                   Max.-Head-Change                         Max.-Flux-Residual
  Residual-Control   Outer-Iter.   Inner-Iter.     Column Row Layer    Maximum-Head-Change  Column Row Layer    Maximum-Flux-Residual          L2-NORM 
          0                 1           2             1    4     1      -0.4152340246E-01       3    5    1        -0.8363499222E-03      0.1223989100E-01
          0                 2           2             1    1     1       0.3607037477E-02       3    3    1         0.8365068896E-04      0.1151214086E-02
          0                 3           2             1    1     1      -0.2901962905E-03       4    3    1        -0.7529499623E-05      0.1085201057E-03
          0                 4           1             1    1     1       0.2079857953E-04       3    4    1        -0.8602149215E-06      0.9610199867E-05
          0                 5           1             1    1     1      -0.1281997832E-05       2    4    1         0.8545715247E-07      0.7395699741E-06
          0                 6           1             1    1     1       0.6890152374E-07       4    4    1        -0.6396032148E-08      0.4845227698E-07

    ------------------------------------------------
       NWT REQUIRED            6 OUTER ITERATIONS 
       AND A TOTAL OF          9 INNER ITERATIONS.
    ------------------------------------------------

 NO OUTPUT CONTROL FOR STRESS PERIOD   45   TIME STEP   25
 
 WELLS WITH REDUCED PUMPING FOR STRESS PERIOD    45 TIME STEP    25
   LAY   ROW   COL         APPL.Q          ACT.Q        GW-HEAD       CELL-BOT
     1     3    50  -0.143002E+01  -0.312805E+00   0.338432E-03   0.000000E+00
     1     5    55  -0.143002E+01  -0.239894E+00   0.288704E-03   0.000000E+00
 
 
 SOLVING FOR HEAD 
                                                   Max.-Head-Change                         Max.-Flux-Residual
  Residual-Control   Outer-Iter.   Inner-Iter.     Column Row Layer    Maximum-Head-Change  Column Row Layer    Maximum-Flux-Residual          L2-NORM 
          0                 1           2             3    4     1      -0.4755465523E-01       1    5    1        -0.8761859689E-03      0.1277249363E-01
          0                 2           2             2    1     1       0.4149440300E-02       1    5    1         0.8763492288E-04      0.1197060235E-02
          0                 3           2             2    1     1      -0.3341281977E-03       1    5    1        -0.7887624097E-05      0.1121716937E-03
          0                 4           1             1    1     1       0.2391158693E-04       1    4    1        -0.8646194445E-06      0.9912022487E-05
          0                 5           1             1    1     1      -0.1456634486E-05       2    4    1         0.8689150022E-07      0.7601997198E-06
          0                 6           1             1    1     1       0.7723361785E-07       2    4    1        -0.6562995480E-08      0.4977043421E-07

    ------------------------------------------------
       NWT REQUIRED            6 OUTER ITERATIONS 
       AND A TOTAL OF          9 INNER ITERATIONS.
    ------------------------------------------------

 NO OUTPUT CONTROL FOR STRESS PERIOD   45   TIME STEP   26
 
 WELLS WITH REDUCED PUMPING FOR STRESS PERIOD    45 TIME STEP    26
   LAY   ROW   COL         APPL.Q          ACT.Q        GW-HEAD       CELL-BOT
     1     3    50  -0.143001E+01  -0.312532E+00   0.338265E-03   0.000000E+00
     1     5    55  -0.143001E+01  -0.239752E+00   0.288609E-03   0.000000E+00
 
 
 SOLVING FOR HEAD 
                                                   Max.-Head-Change                         Max.-Flux-Residual
  Residual-Control   Outer-Iter.   Inner-Iter.     Column Row Layer    Maximum-Head-Change  Column Row Layer    Maximum-Flux-Residual          L2-NORM 
          0                 1           3             1    4     1      -0.5273285892E-01       2    3    1        -0.9128671993E-03      0.1319699877E-01
          0                 2           2             1    1     1       0.4672597124E-02       2    3    1         0.9128807880E-04      0.1249185087E-02
          0                 3           2             1    1     1      -0.3758733973E-03       3    5    1        -0.8216118578E-05      0.1176659601E-03
          0                 4           1             1    1     1       0.2683373223E-04       5    4    1        -0.9656581028E-06      0.1041762305E-04
          0                 5           1             1    1     1      -0.1610984787E-05       4    4    1         0.9471879281E-07      0.7953625277E-06
          0                 6           1             1    1     1       0.8435785082E-07       4    4    1        -0.7048861050E-08      0.5191238036E-07

    ------------------------------------------------
       NWT REQUIRED            6 OUTER ITERATIONS 
       AND A TOTAL OF         10 INNER ITERATIONS.
    ------------------------------------------------

 NO OUTPUT CONTROL FOR STRESS PERIOD   45   TIME STEP   27
 
 WELLS WITH REDUCED PUMPING FOR STRESS PERIOD    45 TIME STEP    27
   LAY   ROW   COL         APPL.Q          ACT.Q        GW-HEAD       CELL-BOT
     1     3    50  -0.143000E+01  -0.312221E+00   0.338073E-03   0.000000E+00
     1     5    55  -0.143000E+01  -0.239584E+00   0.288497E-03   0.000000E+00
 
 
 SOLVING FOR HEAD 
                                                   Max.-Head-Change                         Max.-Flux-Residual
  Residual-Control   Outer-Iter.   Inner-Iter.     Column Row Layer    Maximum-Head-Change  Column Row Layer    Maximum-Flux-Residual          L2-NORM 
          0                 1           3             1    1     1      -0.5758616823E-01       1    5    1        -0.9269616203E-03      0.1346292352E-01
          0                 2           2             1    1     1       0.5149928157E-02       1    5    1         0.9268414219E-04      0.1290305392E-02
          0                 3           2             1    1     1      -0.4137883689E-03       1    5    1        -0.8342370659E-05      0.1223870921E-03
          0                 4           1             1    1     1       0.2945758801E-04       1    4    1        -0.1033085564E-05      0.1086041674E-04
          0                 5           1             1    1     1      -0.1736806565E-05       2    4    1         0.9970053938E-07      0.8237331403E-06
          0                 6           1             1    1     1       0.8965753720E-07       2    4    1        -0.7340709374E-08      0.5350492847E-07

    ------------------------------------------------
       NWT REQUIRED            6 OUTER ITERATIONS 
       AND A TOTAL OF         10 INNER ITERATIONS.
    ------------------------------------------------

 NO OUTPUT CONTROL FOR STRESS PERIOD   45   TIME STEP   28
 
 WELLS WITH REDUCED PUMPING FOR STRESS PERIOD    45 TIME STEP    28
   LAY   ROW   COL         APPL.Q          ACT.Q        GW-HEAD       CELL-BOT
     1     3    50  -0.142997E+01  -0.311874E+00   0.337861E-03   0.000000E+00
     1     5    55  -0.142997E+01  -0.239395E+00   0.288373E-03   0.000000E+00
 
 
 SOLVING FOR HEAD 
                                                   Max.-Head-Change                         Max.-Flux-Residual
  Residual-Control   Outer-Iter.   Inner-Iter.     Column Row Layer    Maximum-Head-Change  Column Row Layer    Maximum-Flux-Residual          L2-NORM 
          0                 1           3             1    1     1      -0.6324127482E-01       1    5    1        -0.9216838158E-03      0.1362664548E-01
          0                 2           2             1    1     1       0.5645783615E-02       1    5    1         0.9215769765E-04      0.1312398430E-02
          0                 3           2             1    1     1      -0.4524672089E-03       1    5    1        -0.8295046380E-05      0.1248036836E-03
          0                 4           1             1    1     1       0.3206272632E-04       1    4    1        -0.1041386554E-05      0.1109039183E-04
          0                 5           1             1    1     1      -0.1844034845E-05       2    4    1         0.1005973331E-06      0.8348745483E-06
          0                 6           1             1    1     1       0.9332867513E-07       2    4    1        -0.7380041467E-08      0.5397690132E-07

    ------------------------------------------------
       NWT REQUIRED            6 OUTER ITERATIONS 
       AND A TOTAL OF         10 INNER ITERATIONS.
    ------------------------------------------------

 NO OUTPUT CONTROL FOR STRESS PERIOD   45   TIME STEP   29
 
 WELLS WITH REDUCED PUMPING FOR STRESS PERIOD    45 TIME STEP    29
   LAY   ROW   COL         APPL.Q          ACT.Q        GW-HEAD       CELL-BOT
     1     3    50  -0.143001E+01  -0.311501E+00   0.337625E-03   0.000000E+00
     1     5    55  -0.143001E+01  -0.239199E+00   0.288237E-03   0.000000E+00
 
 
 SOLVING FOR HEAD 
                                                   Max.-Head-Change                         Max.-Flux-Residual
  Residual-Control   Outer-Iter.   Inner-Iter.     Column Row Layer    Maximum-Head-Change  Column Row Layer    Maximum-Flux-Residual          L2-NORM 
          0                 1           3             1    1     1      -0.6940886602E-01       1    5    1        -0.9192336636E-03      0.1373545380E-01
          0                 2           2             1    1     1       0.6185548759E-02       1    5    1         0.9191214059E-04      0.1327064892E-02
          0                 3           2             1    1     1      -0.4944457652E-03       1    5    1        -0.8273026310E-05      0.1264140315E-03
          0                 4           1             1    1     1       0.3486492033E-04       1    4    1        -0.1046404652E-05      0.1124663742E-04
          0                 5           1             1    1     1      -0.1944041357E-05       2    4    1         0.1012372657E-06      0.8387138261E-06
          0                 6           1             1    1     1       0.9613463129E-07       2    4    1        -0.7391065537E-08      0.5394246156E-07

    ------------------------------------------------
       NWT REQUIRED            6 OUTER ITERATIONS 
       AND A TOTAL OF         10 INNER ITERATIONS.
    ------------------------------------------------

 OUTPUT CONTROL FOR STRESS PERIOD   45   TIME STEP   30
    PRINT HEAD FOR ALL LAYERS
    SAVE HEAD FOR ALL LAYERS
    PRINT BUDGET
    SAVE BUDGET
 
 WELLS WITH REDUCED PUMPING FOR STRESS PERIOD    45 TIME STEP    30
   LAY   ROW   COL         APPL.Q          ACT.Q        GW-HEAD       CELL-BOT
     1     3    50  -0.143000E+01  -0.311054E+00   0.337350E-03   0.000000E+00
     1     5    55  -0.143000E+01  -0.238950E+00   0.288071E-03   0.000000E+00

            WELLS   PERIOD   45   STEP  30
 WELL      1   LAYER   1   ROW     3   COL    50   RATE   -0.311054    
 WELL      2   LAYER   1   ROW     5   COL    55   RATE   -0.238950    
 

  HEAD DEP BOUNDS   PERIOD   45   STEP    30
 BOUNDARY      1   LAYER   1   ROW     1   COL   100   RATE    1.333875E-02
 BOUNDARY      2   LAYER   1   ROW     2   COL   100   RATE    1.330032E-02
 BOUNDARY      3   LAYER   1   ROW     3   COL   100   RATE    1.304304E-02
 BOUNDARY      4   LAYER   1   ROW     4   COL   100   RATE    7.819307E-03
 BOUNDARY      5   LAYER   1   ROW     5   COL   100   RATE    1.304304E-02
 BOUNDARY      6   LAYER   1   ROW     6   COL   100   RATE    1.330032E-02
 BOUNDARY      7   LAYER   1   ROW     7   COL   100   RATE    1.333875E-02



 STREAM LISTING     PERIOD     45   STEP       30

 LAYER ROW COL. STREAM  RCH.   FLOW INTO    STREAM     FLOW OUT OF   OVRLND.    DIRECT     STREAM      STREAM      STREAM     STREAM  STREAMBED   FLOW TO   CHNG. UNSAT. 
                SEG.NO.  NO.   STRM. RCH.    LOSS       STRM. RCH.   RUNOFF     PRECIP       ET         HEAD        DEPTH      WIDTH  CONDCTNC.   WAT. TAB.

   1    4    1     1     1    3.4300E+00  1.2954E-03   3.4287E+00  0.000E+00  0.000E+00  0.000E+00  1.41237E+02  1.387E+00  3.472E+00  6.864E-04  1.429E-03 -1.336E-04
   1    4    2     1     2    3.4287E+00  1.2951E-03   3.4274E+00  0.000E+00  0.000E+00  0.000E+00  1.40937E+02  1.387E+00  3.472E+00  6.863E-04  1.429E-03 -1.332E-04
   1    4    3     1     3    3.4274E+00  1.2947E-03   3.4261E+00  0.000E+00  0.000E+00  0.000E+00  1.40637E+02  1.387E+00  3.472E+00  6.862E-04  1.428E-03 -1.328E-04
   1    4    4     1     4    3.4261E+00  1.2944E-03   3.4248E+00  0.000E+00  0.000E+00  0.000E+00  1.40337E+02  1.387E+00  3.471E+00  6.861E-04  1.427E-03 -1.325E-04
   1    4    5     1     5    3.4248E+00  1.2940E-03   3.4235E+00  0.000E+00  0.000E+00  0.000E+00  1.40036E+02  1.386E+00  3.471E+00  6.860E-04  1.427E-03 -1.322E-04
   1    4    6     1     6    3.4235E+00  1.2937E-03   3.4222E+00  0.000E+00  0.000E+00  0.000E+00  1.39736E+02  1.386E+00  3.471E+00  6.859E-04  1.426E-03 -1.320E-04
   1    4    7     1     7    3.4222E+00  1.2933E-03   3.4209E+00  0.000E+00  0.000E+00  0.000E+00  1.39436E+02  1.386E+00  3.470E+00  6.858E-04  1.425E-03 -1.318E-04
   1    4    8     1     8    3.4209E+00  1.2930E-03   3.4196E+00  0.000E+00  0.000E+00  0.000E+00  1.39135E+02  1.385E+00  3.470E+00  6.857E-04  1.425E-03 -1.316E-04
   1    4    9     1     9    3.4196E+00  1.2926E-03   3.4184E+00  0.000E+00  0.000E+00  0.000E+00  1.38835E+02  1.385E+00  3.470E+00  6.857E-04  1.424E-03 -1.314E-04
   1    4   10     1    10    3.4184E+00  1.2923E-03   3.4171E+00  0.000E+00  0.000E+00  0.000E+00  1.38535E+02  1.385E+00  3.469E+00  6.856E-04  1.424E-03 -1.312E-04
   1    4   11     1    11    3.4171E+00  1.2919E-03   3.4158E+00  0.000E+00  0.000E+00  0.000E+00  1.38235E+02  1.385E+00  3.469E+00  6.855E-04  1.423E-03 -1.311E-04
   1    4   12     1    12    3.4158E+00  1.2915E-03   3.4145E+00  0.000E+00  0.000E+00  0.000E+00  1.37934E+02  1.384E+00  3.469E+00  6.854E-04  1.423E-03 -1.310E-04
   1    4   13     1    13    3.4145E+00  1.2912E-03   3.4132E+00  0.000E+00  0.000E+00  0.000E+00  1.37634E+02  1.384E+00  3.469E+00  6.853E-04  1.422E-03 -1.310E-04
   1    4   14     1    14    3.4132E+00  1.2908E-03   3.4119E+00  0.000E+00  0.000E+00  0.000E+00  1.37334E+02  1.384E+00  3.468E+00  6.852E-04  1.422E-03 -1.309E-04
   1    4   15     1    15    3.4119E+00  1.2905E-03   3.4106E+00  0.000E+00  0.000E+00  0.000E+00  1.37034E+02  1.384E+00  3.468E+00  6.851E-04  1.422E-03 -1.309E-04
   1    4   16     1    16    3.4106E+00  1.2901E-03   3.4093E+00  0.000E+00  0.000E+00  0.000E+00  1.36733E+02  1.383E+00  3.468E+00  6.850E-04  1.421E-03 -1.310E-04
   1    4   17     1    17    3.4093E+00  1.2898E-03   3.4080E+00  0.000E+00  0.000E+00  0.000E+00  1.36433E+02  1.383E+00  3.467E+00  6.849E-04  1.421E-03 -1.310E-04
   1    4   18     1    18    3.4080E+00  1.2894E-03   3.4067E+00  0.000E+00  0.000E+00  0.000E+00  1.36133E+02  1.383E+00  3.467E+00  6.849E-04  1.421E-03 -1.311E-04
   1    4   19     1    19    3.4067E+00  1.2891E-03   3.4054E+00  0.000E+00  0.000E+00  0.000E+00  1.35832E+02  1.382E+00  3.467E+00  6.848E-04  1.421E-03 -1.313E-04
   1    4   20     1    20    3.4054E+00  1.2887E-03   3.4042E+00  0.000E+00  0.000E+00  0.000E+00  1.35532E+02  1.382E+00  3.466E+00  6.847E-04  1.420E-03 -1.314E-04
   1    4   21     1    21    3.4042E+00  1.2884E-03   3.4029E+00  0.000E+00  0.000E+00  0.000E+00  1.35232E+02  1.382E+00  3.466E+00  6.846E-04  1.420E-03 -1.316E-04
   1    4   22     1    22    3.4029E+00  1.2880E-03   3.4016E+00  0.000E+00  0.000E+00  0.000E+00  1.34932E+02  1.382E+00  3.466E+00  6.845E-04  1.420E-03 -1.319E-04
   1    4   23     1    23    3.4016E+00  1.2877E-03   3.4003E+00  0.000E+00  0.000E+00  0.000E+00  1.34631E+02  1.381E+00  3.465E+00  6.844E-04  1.420E-03 -1.321E-04
   1    4   24     1    24    3.4003E+00  1.2873E-03   3.3990E+00  0.000E+00  0.000E+00  0.000E+00  1.34331E+02  1.381E+00  3.465E+00  6.843E-04  1.420E-03 -1.324E-04
   1    4   25     1    25    3.3990E+00  1.2870E-03   3.3977E+00  0.000E+00  0.000E+00  0.000E+00  1.34031E+02  1.381E+00  3.465E+00  6.842E-04  1.420E-03 -1.327E-04
   1    4   26     1    26    3.3977E+00  1.2866E-03   3.3964E+00  0.000E+00  0.000E+00  0.000E+00  1.33731E+02  1.381E+00  3.464E+00  6.841E-04  1.420E-03 -1.331E-04
   1    4   27     1    27    3.3964E+00  1.2863E-03   3.3951E+00  0.000E+00  0.000E+00  0.000E+00  1.33430E+02  1.380E+00  3.464E+00  6.841E-04  1.430E-03 -1.436E-04
   1    4   28     1    28    3.3951E+00  1.2859E-03   3.3939E+00  0.000E+00  0.000E+00  0.000E+00  1.33130E+02  1.380E+00  3.464E+00  6.840E-04  1.447E-03 -1.611E-04
   1    4   29     1    29    3.3939E+00  1.2855E-03   3.3926E+00  0.000E+00  0.000E+00  0.000E+00  1.32830E+02  1.380E+00  3.463E+00  6.839E-04  1.465E-03 -1.796E-04
   1    4   30     1    30    3.3926E+00  1.2852E-03   3.3913E+00  0.000E+00  0.000E+00  0.000E+00  1.32530E+02  1.380E+00  3.463E+00  6.838E-04  1.472E-03 -1.868E-04
   1    4   31     1    31    3.3913E+00  1.2848E-03   3.3900E+00  0.000E+00  0.000E+00  0.000E+00  1.32229E+02  1.379E+00  3.463E+00  6.837E-04  1.472E-03 -1.872E-04
   1    4   32     1    32    3.3900E+00  1.2845E-03   3.3887E+00  0.000E+00  0.000E+00  0.000E+00  1.31929E+02  1.379E+00  3.462E+00  6.836E-04  1.473E-03 -1.885E-04
   1    4   33     1    33    3.3887E+00  1.2841E-03   3.3874E+00  0.000E+00  0.000E+00  0.000E+00  1.31629E+02  1.379E+00  3.462E+00  6.835E-04  1.540E-03 -2.554E-04
   1    4   34     1    34    3.3874E+00  1.2838E-03   3.3862E+00  0.000E+00  0.000E+00  0.000E+00  1.31328E+02  1.378E+00  3.462E+00  6.834E-04  1.560E-03 -2.757E-04
   1    4   35     1    35    3.3862E+00  1.2834E-03   3.3849E+00  0.000E+00  0.000E+00  0.000E+00  1.31028E+02  1.378E+00  3.461E+00  6.834E-04  1.560E-03 -2.765E-04
   1    4   36     1    36    3.3849E+00  1.2831E-03   3.3836E+00  0.000E+00  0.000E+00  0.000E+00  1.30728E+02  1.378E+00  3.461E+00  6.833E-04  1.561E-03 -2.772E-04
   1    4   37     1    37    3.3836E+00  1.2827E-03   3.3823E+00  0.000E+00  0.000E+00  0.000E+00  1.30428E+02  1.378E+00  3.461E+00  6.832E-04  1.561E-03 -2.779E-04
   1    4   38     1    38    3.3823E+00  1.2824E-03   3.3810E+00  0.000E+00  0.000E+00  0.000E+00  1.30127E+02  1.377E+00  3.460E+00  6.831E-04  1.561E-03 -2.784E-04
   1    4   39     1    39    3.3810E+00  1.2820E-03   3.3797E+00  0.000E+00  0.000E+00  0.000E+00  1.29827E+02  1.377E+00  3.460E+00  6.830E-04  1.561E-03 -2.789E-04
   1    4   40     1    40    3.3797E+00  1.2817E-03   3.3785E+00  0.000E+00  0.000E+00  0.000E+00  1.29527E+02  1.377E+00  3.460E+00  6.829E-04  1.603E-03 -3.212E-04
   1    4   41     1    41    3.3785E+00  1.2813E-03   3.3772E+00  0.000E+00  0.000E+00  0.000E+00  1.29227E+02  1.377E+00  3.459E+00  6.828E-04  1.667E-03 -3.850E-04
   1    4   42     1    42    3.3772E+00  1.2810E-03   3.3759E+00  0.000E+00  0.000E+00  0.000E+00  1.28926E+02  1.376E+00  3.459E+00  6.827E-04  1.726E-03 -4.443E-04
   1    4   43     1    43    3.3759E+00  1.2806E-03   3.3746E+00  0.000E+00  0.000E+00  0.000E+00  1.28626E+02  1.376E+00  3.459E+00  6.826E-04  1.732E-03 -4.514E-04
   1    4   44     1    44    3.3746E+00  1.2803E-03   3.3733E+00  0.000E+00  0.000E+00  0.000E+00  1.28326E+02  1.376E+00  3.458E+00  6.826E-04  1.702E-03 -4.210E-04
   1    4   45     1    45    3.3733E+00  1.2799E-03   3.3721E+00  0.000E+00  0.000E+00  0.000E+00  1.28025E+02  1.375E+00  3.458E+00  6.825E-04  1.776E-03 -4.958E-04
   1    4   46     1    46    3.3721E+00  1.2796E-03   3.3708E+00  0.000E+00  0.000E+00  0.000E+00  1.27725E+02  1.375E+00  3.458E+00  6.824E-04  1.850E-03 -5.707E-04
   1    4   47     1    47    3.3708E+00  1.2792E-03   3.3695E+00  0.000E+00  0.000E+00  0.000E+00  1.27425E+02  1.375E+00  3.457E+00  6.823E-04  1.977E-03 -6.972E-04
   1    4   48     1    48    3.3695E+00  1.2789E-03   3.3682E+00  0.000E+00  0.000E+00  0.000E+00  1.27125E+02  1.375E+00  3.457E+00  6.822E-04  2.123E-03 -8.444E-04
   1    4   49     1    49    3.3682E+00  1.2785E-03   3.3669E+00  0.000E+00  0.000E+00  0.000E+00  1.26824E+02  1.374E+00  3.457E+00  6.821E-04  2.252E-03 -9.730E-04
   1    4   50     1    50    3.3669E+00  1.2782E-03   3.3657E+00  0.000E+00  0.000E+00  0.000E+00  1.26524E+02  1.374E+00  3.456E+00  6.820E-04  2.344E-03 -1.066E-03
   1    4   51     1    51    3.3657E+00  1.2778E-03   3.3644E+00  0.000E+00  0.000E+00  0.000E+00  1.26224E+02  1.374E+00  3.456E+00  6.819E-04  2.323E-03 -1.046E-03
   1    4   52     1    52    3.3644E+00  1.2775E-03   3.3631E+00  0.000E+00  0.000E+00  0.000E+00  1.25924E+02  1.374E+00  3.456E+00  6.818E-04  2.317E-03 -1.040E-03
   1    4   53     1    53    3.3631E+00  1.2771E-03   3.3618E+00  0.000E+00  0.000E+00  0.000E+00  1.25623E+02  1.373E+00  3.456E+00  6.818E-04  2.318E-03 -1.041E-03
   1    4   54     1    54    3.3618E+00  1.2768E-03   3.3606E+00  0.000E+00  0.000E+00  0.000E+00  1.25323E+02  1.373E+00  3.455E+00  6.817E-04  2.324E-03 -1.047E-03
   1    4   55     1    55    3.3606E+00  1.2764E-03   3.3593E+00  0.000E+00  0.000E+00  0.000E+00  1.25023E+02  1.373E+00  3.455E+00  6.816E-04  2.343E-03 -1.067E-03
   1    4   56     1    56    3.3593E+00  1.2761E-03   3.3580E+00  0.000E+00  0.000E+00  0.000E+00  1.24722E+02  1.372E+00  3.455E+00  6.815E-04  2.254E-03 -9.774E-04
   1    4   57     1    57    3.3580E+00  1.2757E-03   3.3567E+00  0.000E+00  0.000E+00  0.000E+00  1.24422E+02  1.372E+00  3.454E+00  6.814E-04  2.137E-03 -8.609E-04
   1    4   58     1    58    3.3567E+00  1.2754E-03   3.3554E+00  0.000E+00  0.000E+00  0.000E+00  1.24122E+02  1.372E+00  3.454E+00  6.813E-04  2.022E-03 -7.459E-04
   1    4   59     1    59    3.3554E+00  1.2750E-03   3.3542E+00  0.000E+00  0.000E+00  0.000E+00  1.23822E+02  1.372E+00  3.454E+00  6.812E-04  1.882E-03 -6.072E-04
   1    4   60     1    60    3.3542E+00  1.2747E-03   3.3529E+00  0.000E+00  0.000E+00  0.000E+00  1.23521E+02  1.371E+00  3.453E+00  6.811E-04  1.788E-03 -5.135E-04
   1    4   61     1    61    3.3529E+00  1.2743E-03   3.3516E+00  0.000E+00  0.000E+00  0.000E+00  1.23221E+02  1.371E+00  3.453E+00  6.811E-04  1.713E-03 -4.389E-04
   1    4   62     1    62    3.3516E+00  1.2740E-03   3.3503E+00  0.000E+00  0.000E+00  0.000E+00  1.22921E+02  1.371E+00  3.453E+00  6.810E-04  1.649E-03 -3.745E-04
   1    4   63     1    63    3.3503E+00  1.2736E-03   3.3491E+00  0.000E+00  0.000E+00  0.000E+00  1.22621E+02  1.371E+00  3.452E+00  6.809E-04  1.730E-03 -4.559E-04
   1    4   64     1    64    3.3491E+00  1.2733E-03   3.3478E+00  0.000E+00  0.000E+00  0.000E+00  1.22320E+02  1.370E+00  3.452E+00  6.808E-04  1.674E-03 -4.003E-04
   1    4   65     1    65    3.3478E+00  1.2729E-03   3.3465E+00  0.000E+00  0.000E+00  0.000E+00  1.22020E+02  1.370E+00  3.452E+00  6.807E-04  1.639E-03 -3.661E-04
   1    4   66     1    66    3.3465E+00  1.2726E-03   3.3453E+00  0.000E+00  0.000E+00  0.000E+00  1.21720E+02  1.370E+00  3.451E+00  6.806E-04  1.588E-03 -3.157E-04
   1    4   67     1    67    3.3453E+00  1.2722E-03   3.3440E+00  0.000E+00  0.000E+00  0.000E+00  1.21419E+02  1.369E+00  3.451E+00  6.805E-04  1.558E-03 -2.853E-04
   1    4   68     1    68    3.3440E+00  1.2719E-03   3.3427E+00  0.000E+00  0.000E+00  0.000E+00  1.21119E+02  1.369E+00  3.451E+00  6.804E-04  1.555E-03 -2.825E-04
   1    4   69     1    69    3.3427E+00  1.2715E-03   3.3414E+00  0.000E+00  0.000E+00  0.000E+00  1.20819E+02  1.369E+00  3.450E+00  6.803E-04  1.554E-03 -2.821E-04
   1    4   70     1    70    3.3414E+00  1.2712E-03   3.3402E+00  0.000E+00  0.000E+00  0.000E+00  1.20519E+02  1.369E+00  3.450E+00  6.803E-04  1.553E-03 -2.815E-04
   1    4   71     1    71    3.3402E+00  1.2708E-03   3.3389E+00  0.000E+00  0.000E+00  0.000E+00  1.20218E+02  1.368E+00  3.450E+00  6.802E-04  1.549E-03 -2.775E-04
   1    4   72     1    72    3.3389E+00  1.2705E-03   3.3376E+00  0.000E+00  0.000E+00  0.000E+00  1.19918E+02  1.368E+00  3.449E+00  6.801E-04  1.466E-03 -1.951E-04
   1    4   73     1    73    3.3376E+00  1.2701E-03   3.3364E+00  0.000E+00  0.000E+00  0.000E+00  1.19618E+02  1.368E+00  3.449E+00  6.800E-04  1.465E-03 -1.951E-04
   1    4   74     1    74    3.3364E+00  1.2698E-03   3.3351E+00  0.000E+00  0.000E+00  0.000E+00  1.19318E+02  1.368E+00  3.449E+00  6.799E-04  1.465E-03 -1.947E-04
   1    4   75     1    75    3.3351E+00  1.2694E-03   3.3338E+00  0.000E+00  0.000E+00  0.000E+00  1.19017E+02  1.367E+00  3.448E+00  6.798E-04  1.464E-03 -1.944E-04
   1    4   76     1    76    3.3338E+00  1.2691E-03   3.3326E+00  0.000E+00  0.000E+00  0.000E+00  1.18717E+02  1.367E+00  3.448E+00  6.797E-04  1.463E-03 -1.941E-04
   1    4   77     1    77    3.3326E+00  1.2687E-03   3.3313E+00  0.000E+00  0.000E+00  0.000E+00  1.18417E+02  1.367E+00  3.448E+00  6.796E-04  1.463E-03 -1.937E-04
   1    4   78     1    78    3.3313E+00  1.2684E-03   3.3300E+00  0.000E+00  0.000E+00  0.000E+00  1.18117E+02  1.367E+00  3.447E+00  6.796E-04  1.450E-03 -1.819E-04
   1    4   79     1    79    3.3300E+00  1.2680E-03   3.3287E+00  0.000E+00  0.000E+00  0.000E+00  1.17816E+02  1.366E+00  3.447E+00  6.795E-04  1.429E-03 -1.608E-04
   1    4   80     1    80    3.3287E+00  1.2677E-03   3.3275E+00  0.000E+00  0.000E+00  0.000E+00  1.17516E+02  1.366E+00  3.447E+00  6.794E-04  1.412E-03 -1.440E-04
   1    4   81     1    81    3.3275E+00  1.2673E-03   3.3262E+00  0.000E+00  0.000E+00  0.000E+00  1.17216E+02  1.366E+00  3.446E+00  6.793E-04  1.411E-03 -1.439E-04
   1    4   82     1    82    3.3262E+00  1.2670E-03   3.3249E+00  0.000E+00  0.000E+00  0.000E+00  1.16915E+02  1.365E+00  3.446E+00  6.792E-04  1.411E-03 -1.439E-04
   1    4   83     1    83    3.3249E+00  1.2667E-03   3.3237E+00  0.000E+00  0.000E+00  0.000E+00  1.16615E+02  1.365E+00  3.446E+00  6.791E-04  1.411E-03 -1.438E-04
   1    4   84     1    84    3.3237E+00  1.2663E-03   3.3224E+00  0.000E+00  0.000E+00  0.000E+00  1.16315E+02  1.365E+00  3.445E+00  6.790E-04  1.410E-03 -1.437E-04
   1    4   85     1    85    3.3224E+00  1.2660E-03   3.3211E+00  0.000E+00  0.000E+00  0.000E+00  1.16015E+02  1.365E+00  3.445E+00  6.789E-04  1.410E-03 -1.437E-04
   1    4   86     1    86    3.3211E+00  1.2656E-03   3.3199E+00  0.000E+00  0.000E+00  0.000E+00  1.15714E+02  1.364E+00  3.445E+00  6.788E-04  1.409E-03 -1.437E-04
   1    4   87     1    87    3.3199E+00  1.2653E-03   3.3186E+00  0.000E+00  0.000E+00  0.000E+00  1.15414E+02  1.364E+00  3.445E+00  6.788E-04  1.409E-03 -1.437E-04
   1    4   88     1    88    3.3186E+00  1.2649E-03   3.3173E+00  0.000E+00  0.000E+00  0.000E+00  1.15114E+02  1.364E+00  3.444E+00  6.787E-04  1.409E-03 -1.438E-04
   1    4   89     1    89    3.3173E+00  1.2646E-03   3.3161E+00  0.000E+00  0.000E+00  0.000E+00  1.14814E+02  1.364E+00  3.444E+00  6.786E-04  1.404E-03 -1.394E-04
   1    4   90     1    90    3.3161E+00  1.2642E-03   3.3148E+00  0.000E+00  0.000E+00  0.000E+00  1.14513E+02  1.363E+00  3.444E+00  6.785E-04  1.399E-03 -1.346E-04
   1    4   91     1    91    3.3148E+00  1.2639E-03   3.3136E+00  0.000E+00  0.000E+00  0.000E+00  1.14213E+02  1.363E+00  3.443E+00  6.784E-04  1.399E-03 -1.349E-04
   1    4   92     1    92    3.3136E+00  1.2635E-03   3.3123E+00  0.000E+00  0.000E+00  0.000E+00  1.13913E+02  1.363E+00  3.443E+00  6.783E-04  1.399E-03 -1.354E-04
   1    4   93     1    93    3.3123E+00  1.2632E-03   3.3110E+00  0.000E+00  0.000E+00  0.000E+00  1.13612E+02  1.362E+00  3.443E+00  6.782E-04  1.399E-03 -1.360E-04
   1    4   94     1    94    3.3110E+00  1.2628E-03   3.3098E+00  0.000E+00  0.000E+00  0.000E+00  1.13312E+02  1.362E+00  3.442E+00  6.781E-04  1.400E-03 -1.368E-04
   1    4   95     1    95    3.3098E+00  1.2625E-03   3.3085E+00  0.000E+00  0.000E+00  0.000E+00  1.13012E+02  1.362E+00  3.442E+00  6.781E-04  1.400E-03 -1.378E-04
   1    4   96     1    96    3.3085E+00  1.2621E-03   3.3072E+00  0.000E+00  0.000E+00  0.000E+00  1.12712E+02  1.362E+00  3.442E+00  6.780E-04  1.401E-03 -1.390E-04
   1    4   97     1    97    3.3072E+00  1.2618E-03   3.3060E+00  0.000E+00  0.000E+00  0.000E+00  1.12411E+02  1.361E+00  3.441E+00  6.779E-04  1.400E-03 -1.385E-04
   1    4   98     1    98    3.3060E+00  1.2614E-03   3.3047E+00  0.000E+00  0.000E+00  0.000E+00  1.12111E+02  1.361E+00  3.441E+00  6.778E-04  1.388E-03 -1.264E-04
   1    4   99     1    99    3.3047E+00  1.2611E-03   3.3035E+00  0.000E+00  0.000E+00  0.000E+00  1.11811E+02  1.361E+00  3.441E+00  6.777E-04  1.376E-03 -1.148E-04
   1    4  100     1   100    3.3035E+00  1.2607E-03   3.3022E+00  0.000E+00  0.000E+00  0.000E+00  1.11511E+02  1.361E+00  3.440E+00  6.776E-04  1.371E-03 -1.096E-04



1
  VOLUMETRIC BUDGET FOR UNSATURATED ZONE BENEATH STREAMS AT END OF TIME STEP    30 STRESS PERIOD  45
  ------------------------------------------------------------------------------------------------

    CUMULATIVE VOLUMES             L**3    RATES FOR THIS TIME STEP         L**3/T
    ------------------                     ------------------------


          STREAM LOSS =     34855864.0000            STREAM LOSS =            0.1278
    CHANGE IN STORAGE =      1550862.1250      CHANGE IN STORAGE =       -3.0156E-02
       RECHARGE TO GW =     33312756.0000         RECHARGE TO GW =            0.1580

             TOTAL IN =     34855864.0000               TOTAL IN =            0.1580

            TOTAL OUT =     34863620.0000              TOTAL OUT =            0.1580

             IN - OUT =        -7756.0000               IN - OUT =       -2.1189E-05

  PERCENT DISCREPANCY =           -0.01      PERCENT DISCREPANCY =            -0.00



1
              HEAD IN LAYER   1 AT END OF TIME STEP  30 IN STRESS PERIOD   45
  ---------------------------------------------------------------------------

          1      2      3      4      5      6      7      8      9     10
         11     12     13     14     15     16     17     18     19     20
         21     22     23     24     25     26     27     28     29     30
         31     32     33     34     35     36     37     38     39     40
         41     42     43     44     45     46     47     48     49     50
         51     52     53     54     55     56     57     58     59     60
         61     62     63     64     65     66     67     68     69     70
         71     72     73     74     75     76     77     78     79     80
         81     82     83     84     85     86     87     88     89     90
         91     92     93     94     95     96     97     98     99    100
 .........................................................................
   1    83.2   83.1   83.1   82.9   82.8   82.6   82.4   82.1   81.8   81.5
        81.1   80.6   80.2   79.7   79.1   78.6   77.9   77.2   76.5   75.8
        75.0   74.1   73.2   72.3   71.2   70.2   69.1   67.9   66.7   65.4
        64.0   62.6   61.1   59.5   57.9   56.1   54.3   52.3   50.3   48.1
        45.7   43.2   40.5   37.6   34.4   30.8   26.8   22.0   16.0    9.3
         8.4    8.8    9.1    9.7   11.5   15.4   19.4   23.2   26.5   29.5
        32.2   34.7   37.0   39.1   41.1   43.0   44.7   46.4   48.0   49.5
        50.9   52.3   53.6   54.8   56.0   57.2   58.3   59.4   60.4   61.4
        62.3   63.2   64.1   64.9   65.7   66.5   67.3   68.0   68.7   69.4
        70.0   70.6   71.2   71.8   72.4   72.9   73.5   74.0   74.5   75.0
   2    83.2   83.1   83.1   82.9   82.8   82.6   82.4   82.1   81.8   81.5
        81.1   80.7   80.2   79.7   79.1   78.6   77.9   77.3   76.5   75.8
        75.0   74.1   73.2   72.3   71.2   70.2   69.1   67.9   66.7   65.4
        64.0   62.6   61.1   59.5   57.9   56.1   54.3   52.3   50.3   48.1
        45.7   43.2   40.5   37.6   34.4   30.9   26.8   22.0   15.7    7.1
         8.1    8.8    9.0    9.4   10.9   15.1   19.4   23.1   26.5   29.5
        32.2   34.7   37.0   39.1   41.1   43.0   44.7   46.4   48.0   49.5
        50.9   52.3   53.6   54.8   56.0   57.2   58.3   59.4   60.4   61.4
        62.3   63.2   64.1   64.9   65.7   66.5   67.3   68.0   68.7   69.4
        70.0   70.6   71.2   71.8   72.4   72.9   73.5   74.0   74.5   75.0
   3    83.2   83.1   83.1   82.9   82.8   82.6   82.4   82.1   81.8   81.5
        81.1   80.7   80.2   79.7   79.1   78.6   77.9   77.3   76.5   75.8
        75.0   74.1   73.2   72.3   71.3   70.2   69.1   67.9   66.7   65.4
        64.0   62.6   61.1   59.5   57.9   56.1   54.3   52.3   50.3   48.1
        45.7   43.2   40.6   37.6   34.4   30.9   26.8   22.0   15.4    0.0
         7.9    8.8    8.9    8.8    9.3   14.6   19.2   23.1   26.5   29.5
        32.2   34.7   37.0   39.1   41.1   43.0   44.7   46.4   48.0   49.5
        50.9   52.3   53.6   54.9   56.1   57.2   58.3   59.4   60.4   61.4
        62.3   63.2   64.1   64.9   65.7   66.5   67.3   68.0   68.7   69.4
        70.0   70.6   71.2   71.8   72.4   73.0   73.5   74.0   74.5   75.0
   4    83.2   83.1   83.1   82.9   82.8   82.6   82.4   82.1   81.8   81.5
        81.1   80.7   80.2   79.7   79.1   78.6   77.9   77.3   76.5   75.8
        75.0   74.1   73.2   72.3   71.3   70.2   69.1   67.9   66.7   65.4
        64.0   62.6   61.1   59.5   57.9   56.1   54.3   52.3   50.3   48.1
        45.8   43.3   40.6   37.6   34.5   30.9   26.9   22.2   16.2    7.3
         8.8    9.1    8.8    8.1    6.4   14.0   19.1   23.1   26.5   29.5
        32.2   34.7   37.0   39.1   41.1   43.0   44.7   46.4   48.0   49.5
        50.9   52.3   53.6   54.9   56.1   57.2   58.3   59.4   60.4   61.4
        62.3   63.2   64.1   64.9   65.7   66.5   67.3   68.0   68.7   69.4
        70.0   70.6   71.3   71.8   72.4   73.0   73.5   74.0   74.5   75.0
   5    83.2   83.1   83.1   82.9   82.8   82.6   82.4   82.1   81.8   81.5
        81.1   80.7   80.2   79.7   79.1   78.6   77.9   77.3   76.5   75.8
        75.0   74.1   73.2   72.3   71.3   70.2   69.1   67.9   66.7   65.4
        64.0   62.6   61.1   59.5   57.9   56.1   54.3   52.3   50.3   48.1
        45.7   43.2   40.6   37.6   34.4   30.9   26.9   22.3   16.9   10.6
         9.6    9.2    8.7    7.4    0.0   13.3   18.9   23.0   26.5   29.5
        32.2   34.7   37.0   39.1   41.1   43.0   44.7   46.4   48.0   49.5
        50.9   52.3   53.6   54.9   56.1   57.2   58.3   59.4   60.4   61.4
        62.3   63.2   64.1   64.9   65.7   66.5   67.3   68.0   68.7   69.4
        70.0   70.6   71.2   71.8   72.4   73.0   73.5   74.0   74.5   75.0
   6    83.2   83.1   83.1   82.9   82.8   82.6   82.4   82.1   81.8   81.5
        81.1   80.7   80.2   79.7   79.1   78.6   77.9   77.3   76.5   75.8
        75.0   74.1   73.2   72.3   71.2   70.2   69.1   67.9   66.7   65.4
        64.0   62.6   61.1   59.5   57.9   56.1   54.3   52.3   50.3   48.1
        45.7   43.2   40.5   37.6   34.4   30.9   27.0   22.5   17.5   12.4
        10.3    9.4    8.6    7.6    6.2   13.6   18.9   23.0   26.4   29.5
        32.2   34.7   37.0   39.1   41.1   43.0   44.7   46.4   48.0   49.5
        50.9   52.3   53.6   54.8   56.0   57.2   58.3   59.4   60.4   61.4
        62.3   63.2   64.1   64.9   65.7   66.5   67.3   68.0   68.7   69.4
        70.0   70.6   71.2   71.8   72.4   72.9   73.5   74.0   74.5   75.0
   7    83.2   83.1   83.1   82.9   82.8   82.6   82.4   82.1   81.8   81.5
        81.1   80.6   80.2   79.7   79.1   78.6   77.9   77.2   76.5   75.8
        75.0   74.1   73.2   72.3   71.2   70.2   69.1   67.9   66.7   65.4
        64.0   62.6   61.1   59.5   57.9   56.1   54.3   52.3   50.3   48.1
        45.7   43.2   40.5   37.6   34.4   30.9   27.0   22.6   17.8   13.2
        10.7    9.5    8.7    7.8    8.1   13.8   18.9   23.0   26.4   29.5
        32.2   34.7   37.0   39.1   41.1   43.0   44.7   46.4   48.0   49.5
        50.9   52.3   53.6   54.8   56.0   57.2   58.3   59.4   60.4   61.4
        62.3   63.2   64.1   64.9   65.7   66.5   67.3   68.0   68.7   69.4
        70.0   70.6   71.2   71.8   72.4   72.9   73.5   74.0   74.5   75.0

 HEAD WILL BE SAVED ON UNIT   51 AT END OF TIME STEP   30, STRESS PERIOD   45
1
  VOLUMETRIC BUDGET FOR ENTIRE MODEL AT END OF TIME STEP   30, STRESS PERIOD  45
  ------------------------------------------------------------------------------

     CUMULATIVE VOLUMES      L**3       RATES FOR THIS TIME STEP      L**3/T
     ------------------                 ------------------------

           IN:                                      IN:
           ---                                      ---
             STORAGE     =   114765088.0000               STORAGE     =           0.3048
       CONSTANT HEAD     =           0.0000         CONSTANT HEAD     =           0.0000
               WELLS     =           0.0000                 WELLS     =           0.0000
     HEAD DEP BOUNDS     =     2993712.7500       HEAD DEP BOUNDS     =       8.7184E-02
      STREAM LEAKAGE     =    33312350.0000        STREAM LEAKAGE     =           0.1580

                TOTAL IN =   151071152.0000                  TOTAL IN =           0.5500

          OUT:                                     OUT:
          ----                                     ----
             STORAGE     =     3105392.7500               STORAGE     =           0.0000
       CONSTANT HEAD     =           0.0000         CONSTANT HEAD     =           0.0000
               WELLS     =   131606400.0000                 WELLS     =           0.5500
     HEAD DEP BOUNDS     =    16359348.0000       HEAD DEP BOUNDS     =           0.0000
      STREAM LEAKAGE     =           0.0000        STREAM LEAKAGE     =           0.0000

               TOTAL OUT =   151071136.0000                 TOTAL OUT =           0.5500

                IN - OUT =          16.0000                  IN - OUT =           0.0000

     PERCENT DISCREPANCY =           0.00         PERCENT DISCREPANCY =           0.00






         TIME SUMMARY AT END OF TIME STEP   30 IN STRESS PERIOD   45
                    SECONDS     MINUTES      HOURS       DAYS        YEARS
                    -----------------------------------------------------------
   TIME STEP LENGTH 2.49961E+05  4166.0      69.434      2.8931     7.92080E-03
 STRESS PERIOD TIME 2.59200E+06  43200.      720.00      30.000     8.21355E-02
         TOTAL TIME 1.16640E+08 1.94400E+06  32400.      1350.0      3.6961    
1
1
                            STRESS PERIOD NO.   46, LENGTH =   2592000.    
                            -----------------------------------------------

                              NUMBER OF TIME STEPS =    30

                               MULTIPLIER FOR DELT =     1.100

                            INITIAL TIME STEP SIZE =   15757.40    

 REUSING NON-PARAMETER WELLS FROM LAST STRESS PERIOD

      1 WELL 

 REUSING NON-PARAMETER GHB CELLS FROM LAST STRESS PERIOD

      7 GHB CELLS



 CLASSIFICATION & COUNT OF STREAM SEGMENTS BASED ON SOURCE OF INFLOW:

                HEADWATER     DIVERSION     RECEIVES TRIBUTARY FLOW
                ---------     ---------     -----------------------
                     1              0               0



                    INPUT DATA FOR EACH STREAM SEGMENT
 ---------------------------------------------------------------------------------------------

 SEGMENT    SEG.     INFLOW   OVERLAND   STREAM    STREAM   ICALC  OUTFLOW  DIVERSION PRIORITY
    NO.    LENGTH     RATE     RUNOFF      ET       PPT.    METH.  TO SEG.  FROM SEG.    NO.

      1  2.000E+04 5.000E-01 0.000E+00 0.000E+00 0.000E+00    2        0        0        0


         STREAMBED PROPERTIES AND STREAM DIMENSIONS

 SEGMENT     BED HYD. COND.      BED THICKNESS     ELEV.-TOP OF BED     WIDTH OF STREAM     DEPTH OF STREAM    STREAM ROUGHNESS
    No.     UPPER     LOWER     UPPER     LOWER     UPPER     LOWER     UPPER     LOWER     UPPER     LOWER   CHANNEL      BANK

     1  3.500E-07 3.500E-07                                                                                 3.000E-02 4.000E-02

  EIGHT POINT CROSS-SECTION DATA FOR SEGMENTS WITH ICALC = 2
    X VALUES X VALUES START FROM LEFT SIDE LOOKING DOWNSTREAM

     SEGMENT NO.        X1        X2        X3        X4        X5        X6        X7        X8
            1      0.000E+00 2.000E+00 4.000E+00 6.000E+00 8.000E+00 1.000E+01 1.200E+01 1.400E+01

    Z VALUES ARE RELATIVE TO STREAMBED ELEVATION

     SEGMENT NO.          Z1        Z2        Z3        Z4        Z5        Z6        Z7        Z8
            1      6.000E+00 4.500E+00 3.500E+00 0.000E+00 3.000E-01 3.500E+00 4.500E+00 6.000E+00



 
 SOLVING FOR HEAD 
                                                   Max.-Head-Change                         Max.-Flux-Residual
  Residual-Control   Outer-Iter.   Inner-Iter.     Column Row Layer    Maximum-Head-Change  Column Row Layer    Maximum-Flux-Residual          L2-NORM 
          0                 1           2             1    1     1      -0.4407200712E-02      50    3    1        -0.4402418229E-02      0.1483333146E-01
          0                 2           2             1    1     1       0.4280397478E-03      50    3    1         0.4279102213E-03      0.1439369548E-02
          0                 3           1             1    1     1      -0.3772664100E-04      50    3    1        -0.3862763890E-04      0.1323574905E-03
          0                 4           1             1    1     1       0.2975634859E-05      50    3    1         0.3093155477E-05      0.1079900288E-04
          0                 5           1             1    1     1      -0.2066685525E-06      50    3    1        -0.2174512186E-06      0.7664855248E-06

    ------------------------------------------------
       NWT REQUIRED            5 OUTER ITERATIONS 
       AND A TOTAL OF          7 INNER ITERATIONS.
    ------------------------------------------------

 NO OUTPUT CONTROL FOR STRESS PERIOD   46   TIME STEP    1
 
 WELLS WITH REDUCED PUMPING FOR STRESS PERIOD    46 TIME STEP     1
   LAY   ROW   COL         APPL.Q          ACT.Q        GW-HEAD       CELL-BOT
     1     3    50  -0.145024E+01  -0.311019E+00   0.334630E-03   0.000000E+00
     1     5    55  -0.145024E+01  -0.238928E+00   0.285806E-03   0.000000E+00
 
 
 SOLVING FOR HEAD 
                                                   Max.-Head-Change                         Max.-Flux-Residual
  Residual-Control   Outer-Iter.   Inner-Iter.     Column Row Layer    Maximum-Head-Change  Column Row Layer    Maximum-Flux-Residual          L2-NORM 
          0                 1           2             1    1     1      -0.4846086614E-02       1    1    1        -0.9170880529E-03      0.1376453055E-01
          0                 2           2             1    1     1       0.4694814114E-03       1    1    1         0.9170867724E-04      0.1337671989E-02
          0                 3           1             1    1     1      -0.4129635511E-04       1    1    1        -0.8253795293E-05      0.1235858020E-03
          0                 4           1             1    1     1       0.3252561978E-05       1    7    1         0.6611290129E-06      0.1014009923E-04
          0                 5           1             1    1     1      -0.2257013237E-06       1    4    1         0.4680711996E-07      0.7223800998E-06

    ------------------------------------------------
       NWT REQUIRED            5 OUTER ITERATIONS 
       AND A TOTAL OF          7 INNER ITERATIONS.
    ------------------------------------------------

 NO OUTPUT CONTROL FOR STRESS PERIOD   46   TIME STEP    2
 
 WELLS WITH REDUCED PUMPING FOR STRESS PERIOD    46 TIME STEP     2
   LAY   ROW   COL         APPL.Q          ACT.Q        GW-HEAD       CELL-BOT
     1     3    50  -0.145024E+01  -0.310981E+00   0.334606E-03   0.000000E+00
     1     5    55  -0.145024E+01  -0.238905E+00   0.285790E-03   0.000000E+00
 
 
 SOLVING FOR HEAD 
                                                   Max.-Head-Change                         Max.-Flux-Residual
  Residual-Control   Outer-Iter.   Inner-Iter.     Column Row Layer    Maximum-Head-Change  Column Row Layer    Maximum-Flux-Residual          L2-NORM 
          0                 1           2             1    1     1      -0.5328520722E-02       1    1    1        -0.9169518551E-03      0.1376862400E-01
          0                 2           2             1    1     1       0.5148307882E-03       1    1    1         0.9169502824E-04      0.1339373984E-02
          0                 3           1             1    1     1      -0.4518490478E-04       1    1    1        -0.8252569883E-05      0.1239577707E-03
          0                 4           1             1    1     1       0.3552992642E-05       1    1    1         0.6610308194E-06      0.1020034104E-04
          0                 5           1             1    1     1      -0.2462831021E-06       1    4    1         0.4939581189E-07      0.7285304949E-06

    ------------------------------------------------
       NWT REQUIRED            5 OUTER ITERATIONS 
       AND A TOTAL OF          7 INNER ITERATIONS.
    ------------------------------------------------

 NO OUTPUT CONTROL FOR STRESS PERIOD   46   TIME STEP    3
 
 WELLS WITH REDUCED PUMPING FOR STRESS PERIOD    46 TIME STEP     3
   LAY   ROW   COL         APPL.Q          ACT.Q        GW-HEAD       CELL-BOT
     1     3    50  -0.144981E+01  -0.310939E+00   0.334637E-03   0.000000E+00
     1     5    55  -0.144981E+01  -0.238877E+00   0.285818E-03   0.000000E+00
 
 
 SOLVING FOR HEAD 
                                                   Max.-Head-Change                         Max.-Flux-Residual
  Residual-Control   Outer-Iter.   Inner-Iter.     Column Row Layer    Maximum-Head-Change  Column Row Layer    Maximum-Flux-Residual          L2-NORM 
          0                 1           2             1    1     1      -0.5858807534E-02       1    1    1        -0.9168019291E-03      0.1377205404E-01
          0                 2           2             1    1     1       0.5644508874E-03       1    1    1         0.9168000091E-04      0.1340138471E-02
          0                 3           1             1    1     1      -0.4941923200E-04       1    1    1        -0.8251220960E-05      0.1242395234E-03
          0                 4           1             1    1     1       0.3878670433E-05       1    1    1         0.6609227317E-06      0.1025520188E-04
          0                 5           1             1    1     1      -0.2685116598E-06       1    4    1         0.5200243436E-07      0.7345391384E-06

    ------------------------------------------------
       NWT REQUIRED            5 OUTER ITERATIONS 
       AND A TOTAL OF          7 INNER ITERATIONS.
    ------------------------------------------------

 NO OUTPUT CONTROL FOR STRESS PERIOD   46   TIME STEP    4
 
 WELLS WITH REDUCED PUMPING FOR STRESS PERIOD    46 TIME STEP     4
   LAY   ROW   COL         APPL.Q          ACT.Q        GW-HEAD       CELL-BOT
     1     3    50  -0.145020E+01  -0.310890E+00   0.334556E-03   0.000000E+00
     1     5    55  -0.145020E+01  -0.238844E+00   0.285754E-03   0.000000E+00
 
 
 SOLVING FOR HEAD 
                                                   Max.-Head-Change                         Max.-Flux-Residual
  Residual-Control   Outer-Iter.   Inner-Iter.     Column Row Layer    Maximum-Head-Change  Column Row Layer    Maximum-Flux-Residual          L2-NORM 
          0                 1           2             1    1     1      -0.6441675088E-02       1    1    1        -0.9166372534E-03      0.1377660989E-01
          0                 2           2             1    1     1       0.6187400726E-03       1    1    1         0.9166349226E-04      0.1340660550E-02
          0                 3           1             1    1     1      -0.5402876739E-04       1    1    1        -0.8249739372E-05      0.1244999791E-03
          0                 4           1             1    1     1       0.4231477024E-05       1    1    1         0.6608040035E-06      0.1030989485E-04
          0                 5           1             1    1     1      -0.2924902548E-06       1    4    1         0.5461577857E-07      0.7407507941E-06

    ------------------------------------------------
       NWT REQUIRED            5 OUTER ITERATIONS 
       AND A TOTAL OF          7 INNER ITERATIONS.
    ------------------------------------------------

 NO OUTPUT CONTROL FOR STRESS PERIOD   46   TIME STEP    5
 
 WELLS WITH REDUCED PUMPING FOR STRESS PERIOD    46 TIME STEP     5
   LAY   ROW   COL         APPL.Q          ACT.Q        GW-HEAD       CELL-BOT
     1     3    50  -0.145010E+01  -0.310836E+00   0.334536E-03   0.000000E+00
     1     5    55  -0.145010E+01  -0.238805E+00   0.285739E-03   0.000000E+00
 
 
 SOLVING FOR HEAD 
                                                   Max.-Head-Change                         Max.-Flux-Residual
  Residual-Control   Outer-Iter.   Inner-Iter.     Column Row Layer    Maximum-Head-Change  Column Row Layer    Maximum-Flux-Residual          L2-NORM 
          0                 1           2             1    1     1      -0.7082317746E-02       1    1    1        -0.9164566318E-03      0.1378453020E-01
          0                 2           2             1    1     1       0.6781360278E-03       1    1    1         0.9164538177E-04      0.1341194699E-02
          0                 3           1             1    1     1      -0.5904575461E-04       1    1    1        -0.8248114337E-05      0.1247600118E-03
          0                 4           1             1    1     1       0.4613454066E-05       1    4    1        -0.6813569158E-06      0.1036589502E-04
          0                 5           1             1    1     1      -0.3183284905E-06       1    4    1         0.5722469254E-07      0.7472677264E-06

    ------------------------------------------------
       NWT REQUIRED            5 OUTER ITERATIONS 
       AND A TOTAL OF          7 INNER ITERATIONS.
    ------------------------------------------------

 NO OUTPUT CONTROL FOR STRESS PERIOD   46   TIME STEP    6
 
 WELLS WITH REDUCED PUMPING FOR STRESS PERIOD    46 TIME STEP     6
   LAY   ROW   COL         APPL.Q          ACT.Q        GW-HEAD       CELL-BOT
     1     3    50  -0.144992E+01  -0.310768E+00   0.334518E-03   0.000000E+00
     1     5    55  -0.144992E+01  -0.238762E+00   0.285730E-03   0.000000E+00
 
 
 SOLVING FOR HEAD 
                                                   Max.-Head-Change                         Max.-Flux-Residual
  Residual-Control   Outer-Iter.   Inner-Iter.     Column Row Layer    Maximum-Head-Change  Column Row Layer    Maximum-Flux-Residual          L2-NORM 
          0                 1           2             1    1     1      -0.7786439595E-02       1    1    1        -0.9162586990E-03      0.1378627729E-01
          0                 2           2             1    1     1       0.7431198078E-03       1    1    1         0.9162553190E-04      0.1341886899E-02
          0                 3           1             1    1     1      -0.6450558671E-04       1    1    1        -0.8246333577E-05      0.1250303721E-03
          0                 4           1             1    1     1       0.5026826077E-05       1    4    1        -0.7049900468E-06      0.1042338579E-04
          0                 5           1             1    1     1      -0.3461433858E-06       1    4    1         0.5981808471E-07      0.7540847217E-06

    ------------------------------------------------
       NWT REQUIRED            5 OUTER ITERATIONS 
       AND A TOTAL OF          7 INNER ITERATIONS.
    ------------------------------------------------

 NO OUTPUT CONTROL FOR STRESS PERIOD   46   TIME STEP    7
 
 WELLS WITH REDUCED PUMPING FOR STRESS PERIOD    46 TIME STEP     7
   LAY   ROW   COL         APPL.Q          ACT.Q        GW-HEAD       CELL-BOT
     1     3    50  -0.144983E+01  -0.310698E+00   0.334486E-03   0.000000E+00
     1     5    55  -0.144983E+01  -0.238711E+00   0.285705E-03   0.000000E+00
 
 
 SOLVING FOR HEAD 
                                                   Max.-Head-Change                         Max.-Flux-Residual
  Residual-Control   Outer-Iter.   Inner-Iter.     Column Row Layer    Maximum-Head-Change  Column Row Layer    Maximum-Flux-Residual          L2-NORM 
          0                 1           2             1    1     1      -0.8560306510E-02       1    1    1        -0.9160419200E-03      0.1378867854E-01
          0                 2           2             1    1     1       0.8142207074E-03       1    1    1         0.9160378808E-04      0.1342061546E-02
          0                 3           1             1    1     1      -0.7044721562E-04       1    1    1        -0.8244383299E-05      0.1252474519E-03
          0                 4           1             1    1     1       0.5474028719E-05       1    4    1        -0.7280087218E-06      0.1047781478E-04
          0                 5           1             1    1     1      -0.3760613041E-06       1    4    1         0.6238515482E-07      0.7608944475E-06

    ------------------------------------------------
       NWT REQUIRED            5 OUTER ITERATIONS 
       AND A TOTAL OF          7 INNER ITERATIONS.
    ------------------------------------------------

 NO OUTPUT CONTROL FOR STRESS PERIOD   46   TIME STEP    8
 
 WELLS WITH REDUCED PUMPING FOR STRESS PERIOD    46 TIME STEP     8
   LAY   ROW   COL         APPL.Q          ACT.Q        GW-HEAD       CELL-BOT
     1     3    50  -0.144987E+01  -0.310610E+00   0.334427E-03   0.000000E+00
     1     5    55  -0.144987E+01  -0.238653E+00   0.285662E-03   0.000000E+00
 
 
 SOLVING FOR HEAD 
                                                   Max.-Head-Change                         Max.-Flux-Residual
  Residual-Control   Outer-Iter.   Inner-Iter.     Column Row Layer    Maximum-Head-Change  Column Row Layer    Maximum-Flux-Residual          L2-NORM 
          0                 1           2             1    1     1      -0.9410798044E-02       1    1    1        -0.9158045863E-03      0.1379541377E-01
          0                 2           2             1    1     1       0.8920211163E-03       1    1    1         0.9157997826E-04      0.1342570408E-02
          0                 3           1             1    1     1      -0.7691356126E-04       1    1    1        -0.8242248105E-05      0.1254992196E-03
          0                 4           1             1    1     1       0.5957736054E-05       1    4    1        -0.7503524628E-06      0.1053562842E-04
          0                 5           1             1    1     1      -0.4082193853E-06       1    4    1         0.6491534421E-07      0.7680879927E-06

    ------------------------------------------------
       NWT REQUIRED            5 OUTER ITERATIONS 
       AND A TOTAL OF          7 INNER ITERATIONS.
    ------------------------------------------------

 NO OUTPUT CONTROL FOR STRESS PERIOD   46   TIME STEP    9
 
 WELLS WITH REDUCED PUMPING FOR STRESS PERIOD    46 TIME STEP     9
   LAY   ROW   COL         APPL.Q          ACT.Q        GW-HEAD       CELL-BOT
     1     3    50  -0.144994E+01  -0.310523E+00   0.334364E-03   0.000000E+00
     1     5    55  -0.144994E+01  -0.238593E+00   0.285615E-03   0.000000E+00
 
 
 SOLVING FOR HEAD 
                                                   Max.-Head-Change                         Max.-Flux-Residual
  Residual-Control   Outer-Iter.   Inner-Iter.     Column Row Layer    Maximum-Head-Change  Column Row Layer    Maximum-Flux-Residual          L2-NORM 
          0                 1           2             1    1     1      -0.1034546986E-01       1    1    1        -0.9155448076E-03      0.1380000797E-01
          0                 2           2             1    1     1       0.9771623338E-03       1    1    1         0.9155391212E-04      0.1343122535E-02
          0                 3           1             1    1     1      -0.8395200298E-04       1    1    1        -0.8239911006E-05      0.1257534640E-03
          0                 4           1             1    1     1       0.6480893244E-05       1    4    1        -0.7719669028E-06      0.1059378672E-04
          0                 5           1             1    1     1      -0.4427671585E-06       1    4    1         0.6739848857E-07      0.7754319088E-06

    ------------------------------------------------
       NWT REQUIRED            5 OUTER ITERATIONS 
       AND A TOTAL OF          7 INNER ITERATIONS.
    ------------------------------------------------

 NO OUTPUT CONTROL FOR STRESS PERIOD   46   TIME STEP   10
 
 WELLS WITH REDUCED PUMPING FOR STRESS PERIOD    46 TIME STEP    10
   LAY   ROW   COL         APPL.Q          ACT.Q        GW-HEAD       CELL-BOT
     1     3    50  -0.144988E+01  -0.310413E+00   0.334305E-03   0.000000E+00
     1     5    55  -0.144988E+01  -0.238515E+00   0.285569E-03   0.000000E+00
 
 
 SOLVING FOR HEAD 
                                                   Max.-Head-Change                         Max.-Flux-Residual
  Residual-Control   Outer-Iter.   Inner-Iter.     Column Row Layer    Maximum-Head-Change  Column Row Layer    Maximum-Flux-Residual          L2-NORM 
          0                 1           2             1    1     1      -0.1137261402E-01       1    1    1        -0.9152605019E-03      0.1380293220E-01
          0                 2           2             1    1     1       0.1070350164E-02       1    1    1         0.9152538008E-04      0.1343419873E-02
          0                 3           1             1    1     1      -0.9161484839E-04       1    1    1        -0.8237353263E-05      0.1259671054E-03
          0                 4           1             1    1     1       0.7046744217E-05       1    4    1        -0.7928035863E-06      0.1064857289E-04
          0                 5           1             1    1     1      -0.4798680039E-06       1    4    1         0.6982481793E-07      0.7826793675E-06

    ------------------------------------------------
       NWT REQUIRED            5 OUTER ITERATIONS 
       AND A TOTAL OF          7 INNER ITERATIONS.
    ------------------------------------------------

 NO OUTPUT CONTROL FOR STRESS PERIOD   46   TIME STEP   11
 
 WELLS WITH REDUCED PUMPING FOR STRESS PERIOD    46 TIME STEP    11
   LAY   ROW   COL         APPL.Q          ACT.Q        GW-HEAD       CELL-BOT
     1     3    50  -0.145005E+01  -0.310299E+00   0.334213E-03   0.000000E+00
     1     5    55  -0.145005E+01  -0.238439E+00   0.285500E-03   0.000000E+00
 
 
 SOLVING FOR HEAD 
                                                   Max.-Head-Change                         Max.-Flux-Residual
  Residual-Control   Outer-Iter.   Inner-Iter.     Column Row Layer    Maximum-Head-Change  Column Row Layer    Maximum-Flux-Residual          L2-NORM 
          0                 1           2             1    1     1      -0.1250133262E-01       1    1    1        -0.9149493812E-03      0.1380539080E-01
          0                 2           2             1    1     1       0.1172361692E-02       1    1    1         0.9149415177E-04      0.1343848577E-02
          0                 3           1             1    1     1      -0.9995989617E-04       1    1    1        -0.8234554281E-05      0.1261973101E-03
          0                 4           1             1    1     1       0.7658863354E-05       1    4    1        -0.8128199696E-06      0.1070459850E-04
          0                 5           1             1    1     1      -0.5197006300E-06       1    4    1         0.7218495313E-07      0.7900824538E-06

    ------------------------------------------------
       NWT REQUIRED            5 OUTER ITERATIONS 
       AND A TOTAL OF          7 INNER ITERATIONS.
    ------------------------------------------------

 NO OUTPUT CONTROL FOR STRESS PERIOD   46   TIME STEP   12
 
 WELLS WITH REDUCED PUMPING FOR STRESS PERIOD    46 TIME STEP    12
   LAY   ROW   COL         APPL.Q          ACT.Q        GW-HEAD       CELL-BOT
     1     3    50  -0.145007E+01  -0.310170E+00   0.334130E-03   0.000000E+00
     1     5    55  -0.145007E+01  -0.238343E+00   0.285433E-03   0.000000E+00
 
 
 SOLVING FOR HEAD 
                                                   Max.-Head-Change                         Max.-Flux-Residual
  Residual-Control   Outer-Iter.   Inner-Iter.     Column Row Layer    Maximum-Head-Change  Column Row Layer    Maximum-Flux-Residual          L2-NORM 
          0                 1           2             1    1     1      -0.1374161372E-01       1    1    1        -0.9146089352E-03      0.1380871239E-01
          0                 2           2             1    1     1       0.1284052220E-02       1    1    1         0.9145997453E-04      0.1344070731E-02
          0                 3           2             1    1     1      -0.1090532093E-03       1    1    1        -0.8231491480E-05      0.1263898476E-03
          0                 4           1             1    1     1       0.8323529149E-05       1    4    1        -0.8321362834E-06      0.1076058469E-04
          0                 5           1             1    1     1      -0.5626083763E-06       1    4    1         0.7449250461E-07      0.7975690494E-06

    ------------------------------------------------
       NWT REQUIRED            5 OUTER ITERATIONS 
       AND A TOTAL OF          8 INNER ITERATIONS.
    ------------------------------------------------

 NO OUTPUT CONTROL FOR STRESS PERIOD   46   TIME STEP   13
 
 WELLS WITH REDUCED PUMPING FOR STRESS PERIOD    46 TIME STEP    13
   LAY   ROW   COL         APPL.Q          ACT.Q        GW-HEAD       CELL-BOT
     1     3    50  -0.145007E+01  -0.310023E+00   0.334039E-03   0.000000E+00
     1     5    55  -0.145007E+01  -0.238244E+00   0.285367E-03   0.000000E+00
 
 
 SOLVING FOR HEAD 
                                                   Max.-Head-Change                         Max.-Flux-Residual
  Residual-Control   Outer-Iter.   Inner-Iter.     Column Row Layer    Maximum-Head-Change  Column Row Layer    Maximum-Flux-Residual          L2-NORM 
          0                 1           2             1    1     1      -0.1510441399E-01       1    1    1        -0.9142364123E-03      0.1381410809E-01
          0                 2           2             1    1     1       0.1406362753E-02       1    1    1         0.9142257136E-04      0.1344320944E-02
          0                 3           2             1    1     1      -0.1189623299E-03       1    1    1        -0.8228140089E-05      0.1265832162E-03
          0                 4           1             1    1     1       0.9041887178E-05       1    4    1        -0.8504737785E-06      0.1081381543E-04
          0                 5           1             1    1     1      -0.6085997435E-06       1    4    1         0.7670423940E-07      0.8048582468E-06

    ------------------------------------------------
       NWT REQUIRED            5 OUTER ITERATIONS 
       AND A TOTAL OF          8 INNER ITERATIONS.
    ------------------------------------------------

 NO OUTPUT CONTROL FOR STRESS PERIOD   46   TIME STEP   14
 
 WELLS WITH REDUCED PUMPING FOR STRESS PERIOD    46 TIME STEP    14
   LAY   ROW   COL         APPL.Q          ACT.Q        GW-HEAD       CELL-BOT
     1     3    50  -0.145003E+01  -0.309865E+00   0.333948E-03   0.000000E+00
     1     5    55  -0.145003E+01  -0.238129E+00   0.285295E-03   0.000000E+00
 
 
 SOLVING FOR HEAD 
                                                   Max.-Head-Change                         Max.-Flux-Residual
  Residual-Control   Outer-Iter.   Inner-Iter.     Column Row Layer    Maximum-Head-Change  Column Row Layer    Maximum-Flux-Residual          L2-NORM 
          0                 1           2             1    1     1      -0.1660174897E-01       1    1    1        -0.9138287949E-03      0.1381174771E-01
          0                 2           2             1    1     1       0.1540328097E-02       1    1    1         0.9138163854E-04      0.1344775284E-02
          0                 3           2             1    1     1      -0.1297666891E-03       1    1    1        -0.8224472950E-05      0.1268020240E-03
          0                 4           1             1    1     1       0.9820364810E-05       1    4    1        -0.8679213295E-06      0.1086825016E-04
          0                 5           1             1    1     1      -0.6580078373E-06       1    4    1         0.7882809072E-07      0.8121807840E-06

    ------------------------------------------------
       NWT REQUIRED            5 OUTER ITERATIONS 
       AND A TOTAL OF          8 INNER ITERATIONS.
    ------------------------------------------------

 NO OUTPUT CONTROL FOR STRESS PERIOD   46   TIME STEP   15
 
 WELLS WITH REDUCED PUMPING FOR STRESS PERIOD    46 TIME STEP    15
   LAY   ROW   COL         APPL.Q          ACT.Q        GW-HEAD       CELL-BOT
     1     3    50  -0.145003E+01  -0.309676E+00   0.333832E-03   0.000000E+00
     1     5    55  -0.145003E+01  -0.238000E+00   0.285209E-03   0.000000E+00
 
 
 SOLVING FOR HEAD 
                                                   Max.-Head-Change                         Max.-Flux-Residual
  Residual-Control   Outer-Iter.   Inner-Iter.     Column Row Layer    Maximum-Head-Change  Column Row Layer    Maximum-Flux-Residual          L2-NORM 
          0                 1           2             1    1     1      -0.1824679136E-01       1    1    1        -0.9133827771E-03      0.1381519084E-01
          0                 2           2             1    1     1       0.1687085627E-02       1    1    1         0.9133684332E-04      0.1344717180E-02
          0                 3           2             1    1     1      -0.1415525085E-03       1    1    1        -0.8220460293E-05      0.1269599674E-03
          0                 4           1             1    1     1       0.1066453626E-04       1    4    1        -0.8844646615E-06      0.1091740162E-04
          0                 5           1             1    1     1      -0.7110957541E-06       2    4    1         0.8086079717E-07      0.8190666499E-06

    ------------------------------------------------
       NWT REQUIRED            5 OUTER ITERATIONS 
       AND A TOTAL OF          8 INNER ITERATIONS.
    ------------------------------------------------

 NO OUTPUT CONTROL FOR STRESS PERIOD   46   TIME STEP   16
 
 WELLS WITH REDUCED PUMPING FOR STRESS PERIOD    46 TIME STEP    16
   LAY   ROW   COL         APPL.Q          ACT.Q        GW-HEAD       CELL-BOT
     1     3    50  -0.145003E+01  -0.309483E+00   0.333713E-03   0.000000E+00
     1     5    55  -0.145003E+01  -0.237862E+00   0.285116E-03   0.000000E+00
 
 
 SOLVING FOR HEAD 
                                                   Max.-Head-Change                         Max.-Flux-Residual
  Residual-Control   Outer-Iter.   Inner-Iter.     Column Row Layer    Maximum-Head-Change  Column Row Layer    Maximum-Flux-Residual          L2-NORM 
          0                 1           2             1    1     1      -0.2006413448E-01       1    1    1        -0.9128947350E-03      0.1381443272E-01
          0                 2           2             1    1     1       0.1851024441E-02       1    1    1         0.9128794185E-04      0.1344464786E-02
          0                 3           2             1    1     1      -0.1547985425E-03       1    1    1        -0.8216077378E-05      0.1270052433E-03
          0                 4           1             1    1     1       0.1161364980E-04       1    4    1        -0.8842808086E-06      0.1095117163E-04
          0                 5           1             1    1     1      -0.7703185983E-06       1    4    1         0.8171510402E-07      0.8246364124E-06

    ------------------------------------------------
       NWT REQUIRED            5 OUTER ITERATIONS 
       AND A TOTAL OF          8 INNER ITERATIONS.
    ------------------------------------------------

 NO OUTPUT CONTROL FOR STRESS PERIOD   46   TIME STEP   17
 
 WELLS WITH REDUCED PUMPING FOR STRESS PERIOD    46 TIME STEP    17
   LAY   ROW   COL         APPL.Q          ACT.Q        GW-HEAD       CELL-BOT
     1     3    50  -0.145006E+01  -0.309245E+00   0.333562E-03   0.000000E+00
     1     5    55  -0.145006E+01  -0.237689E+00   0.284997E-03   0.000000E+00
 
 
 SOLVING FOR HEAD 
                                                   Max.-Head-Change                         Max.-Flux-Residual
  Residual-Control   Outer-Iter.   Inner-Iter.     Column Row Layer    Maximum-Head-Change  Column Row Layer    Maximum-Flux-Residual          L2-NORM 
          0                 1           2             1    1     1      -0.2214549094E-01       2    5    1        -0.9132886389E-03      0.1382631814E-01
          0                 2           2             1    1     1       0.2035247296E-02       2    3    1         0.9132694658E-04      0.1344288748E-02
          0                 3           2             1    1     1      -0.1694353458E-03       2    3    1        -0.8219686400E-05      0.1270565226E-03
          0                 4           1             1    1     1       0.1264690271E-04       3    4    1        -0.8883799971E-06      0.1098725304E-04
          0                 5           1             1    1     1      -0.8337579786E-06       2    4    1         0.8311726418E-07      0.8303438842E-06

    ------------------------------------------------
       NWT REQUIRED            5 OUTER ITERATIONS 
       AND A TOTAL OF          8 INNER ITERATIONS.
    ------------------------------------------------

 NO OUTPUT CONTROL FOR STRESS PERIOD   46   TIME STEP   18
 
 WELLS WITH REDUCED PUMPING FOR STRESS PERIOD    46 TIME STEP    18
   LAY   ROW   COL         APPL.Q          ACT.Q        GW-HEAD       CELL-BOT
     1     3    50  -0.145005E+01  -0.309009E+00   0.333419E-03   0.000000E+00
     1     5    55  -0.145005E+01  -0.237526E+00   0.284890E-03   0.000000E+00
 
 
 SOLVING FOR HEAD 
                                                   Max.-Head-Change                         Max.-Flux-Residual
  Residual-Control   Outer-Iter.   Inner-Iter.     Column Row Layer    Maximum-Head-Change  Column Row Layer    Maximum-Flux-Residual          L2-NORM 
          0                 1           2             1    1     1      -0.2438057345E-01       1    3    1        -0.9200931707E-03      0.1383764309E-01
          0                 2           2             1    1     1       0.2234831234E-02       1    3    1         0.9200495505E-04      0.1346130083E-02
          0                 3           2             1    1     1      -0.1854257135E-03       1    3    1        -0.8280758561E-05      0.1273843710E-03
          0                 4           1             1    1     1       0.1378389088E-04       1    4    1        -0.9166872665E-06      0.1104646547E-04
          0                 5           1             1    1     1      -0.9036972090E-06       2    4    1         0.8578139088E-07      0.8373675616E-06

    ------------------------------------------------
       NWT REQUIRED            5 OUTER ITERATIONS 
       AND A TOTAL OF          8 INNER ITERATIONS.
    ------------------------------------------------

 NO OUTPUT CONTROL FOR STRESS PERIOD   46   TIME STEP   19
 
 WELLS WITH REDUCED PUMPING FOR STRESS PERIOD    46 TIME STEP    19
   LAY   ROW   COL         APPL.Q          ACT.Q        GW-HEAD       CELL-BOT
     1     3    50  -0.144997E+01  -0.308724E+00   0.333254E-03   0.000000E+00
     1     5    55  -0.144997E+01  -0.237313E+00   0.284756E-03   0.000000E+00
 
 
 SOLVING FOR HEAD 
                                                   Max.-Head-Change                         Max.-Flux-Residual
  Residual-Control   Outer-Iter.   Inner-Iter.     Column Row Layer    Maximum-Head-Change  Column Row Layer    Maximum-Flux-Residual          L2-NORM 
          0                 1           2             1    1     1      -0.2680399885E-01       1    3    1        -0.9182298701E-03      0.1383904280E-01
          0                 2           2             1    1     1       0.2449771033E-02       1    3    1         0.9181849908E-04      0.1346523770E-02
          0                 3           2             1    1     1      -0.2025036398E-03       1    3    1        -0.8264007644E-05      0.1275267363E-03
          0                 4           1             1    1     1       0.1498538286E-04       1    4    1        -0.9303867188E-06      0.1108759439E-04
          0                 5           1             1    1     1      -0.9761707018E-06       2    4    1         0.8746255986E-07      0.8427684509E-06

    ------------------------------------------------
       NWT REQUIRED            5 OUTER ITERATIONS 
       AND A TOTAL OF          8 INNER ITERATIONS.
    ------------------------------------------------

 NO OUTPUT CONTROL FOR STRESS PERIOD   46   TIME STEP   20
 
 WELLS WITH REDUCED PUMPING FOR STRESS PERIOD    46 TIME STEP    20
   LAY   ROW   COL         APPL.Q          ACT.Q        GW-HEAD       CELL-BOT
     1     3    50  -0.144996E+01  -0.308420E+00   0.333068E-03   0.000000E+00
     1     5    55  -0.144996E+01  -0.237100E+00   0.284615E-03   0.000000E+00
 
 
 SOLVING FOR HEAD 
                                                   Max.-Head-Change                         Max.-Flux-Residual
  Residual-Control   Outer-Iter.   Inner-Iter.     Column Row Layer    Maximum-Head-Change  Column Row Layer    Maximum-Flux-Residual          L2-NORM 
          0                 1           2             1    1     1      -0.2945497188E-01       1    3    1        -0.9170433672E-03      0.1384124668E-01
          0                 2           2             1    1     1       0.2684277073E-02       1    3    1         0.9169957282E-04      0.1346546751E-02
          0                 3           2             1    1     1      -0.2210663028E-03       1    3    1        -0.8253339249E-05      0.1276375084E-03
          0                 4           1             1    1     1       0.1628379398E-04       1    4    1        -0.9421601170E-06      0.1112588109E-04
          0                 5           1             1    1     1      -0.1053208125E-05       2    4    1         0.8899252535E-07      0.8475933687E-06
          0                 6           1             1    1     1       0.5926036577E-07       2    4    1        -0.6513101170E-08      0.5498386756E-07

    ------------------------------------------------
       NWT REQUIRED            6 OUTER ITERATIONS 
       AND A TOTAL OF          9 INNER ITERATIONS.
    ------------------------------------------------

 NO OUTPUT CONTROL FOR STRESS PERIOD   46   TIME STEP   21
 
 WELLS WITH REDUCED PUMPING FOR STRESS PERIOD    46 TIME STEP    21
   LAY   ROW   COL         APPL.Q          ACT.Q        GW-HEAD       CELL-BOT
     1     3    50  -0.145000E+01  -0.308068E+00   0.332845E-03   0.000000E+00
     1     5    55  -0.145000E+01  -0.236834E+00   0.284432E-03   0.000000E+00
 
 
 SOLVING FOR HEAD 
                                                   Max.-Head-Change                         Max.-Flux-Residual
  Residual-Control   Outer-Iter.   Inner-Iter.     Column Row Layer    Maximum-Head-Change  Column Row Layer    Maximum-Flux-Residual          L2-NORM 
          0                 1           2             1    1     1      -0.3236298251E-01       1    6    1        -0.9161318328E-03      0.1383291666E-01
          0                 2           2             1    1     1       0.2941082741E-02       1    7    1         0.9160901751E-04      0.1346365521E-02
          0                 3           2             1    1     1      -0.2413400101E-03       1    7    1        -0.8245126157E-05      0.1277269088E-03
          0                 4           1             1    1     1       0.1769525913E-04       1    4    1        -0.9529907210E-06      0.1116023513E-04
          0                 5           1             1    1     1      -0.1135439893E-05       2    4    1         0.9041862370E-07      0.8516068805E-06
          0                 6           1             1    1     1       0.6337471371E-07       2    4    1        -0.6640835437E-08      0.5536434773E-07

    ------------------------------------------------
       NWT REQUIRED            6 OUTER ITERATIONS 
       AND A TOTAL OF          9 INNER ITERATIONS.
    ------------------------------------------------

 NO OUTPUT CONTROL FOR STRESS PERIOD   46   TIME STEP   22
 
 WELLS WITH REDUCED PUMPING FOR STRESS PERIOD    46 TIME STEP    22
   LAY   ROW   COL         APPL.Q          ACT.Q        GW-HEAD       CELL-BOT
     1     3    50  -0.144999E+01  -0.307709E+00   0.332626E-03   0.000000E+00
     1     5    55  -0.144999E+01  -0.236580E+00   0.284263E-03   0.000000E+00
 
 
 SOLVING FOR HEAD 
                                                   Max.-Head-Change                         Max.-Flux-Residual
  Residual-Control   Outer-Iter.   Inner-Iter.     Column Row Layer    Maximum-Head-Change  Column Row Layer    Maximum-Flux-Residual          L2-NORM 
          0                 1           2             1    1     1      -0.3555482970E-01       1    7    1        -0.9152731812E-03      0.1382790246E-01
          0                 2           2             1    1     1       0.3222567780E-02       1    7    1         0.9152366934E-04      0.1345765759E-02
          0                 3           2             1    1     1      -0.2635126845E-03       1    7    1        -0.8237485267E-05      0.1277505136E-03
          0                 4           1             1    1     1       0.1923223748E-04       1    4    1        -0.9629642825E-06      0.1118753898E-04
          0                 5           1             1    1     1      -0.1223049162E-05       2    4    1         0.9174292614E-07      0.8545125456E-06
          0                 6           1             1    1     1       0.6765199265E-07       2    4    1        -0.6757677085E-08      0.5563931046E-07

    ------------------------------------------------
       NWT REQUIRED            6 OUTER ITERATIONS 
       AND A TOTAL OF          9 INNER ITERATIONS.
    ------------------------------------------------

 NO OUTPUT CONTROL FOR STRESS PERIOD   46   TIME STEP   23
 
 WELLS WITH REDUCED PUMPING FOR STRESS PERIOD    46 TIME STEP    23
   LAY   ROW   COL         APPL.Q          ACT.Q        GW-HEAD       CELL-BOT
     1     3    50  -0.145003E+01  -0.307355E+00   0.332402E-03   0.000000E+00
     1     5    55  -0.145003E+01  -0.236336E+00   0.284095E-03   0.000000E+00
 
 
 SOLVING FOR HEAD 
                                                   Max.-Head-Change                         Max.-Flux-Residual
  Residual-Control   Outer-Iter.   Inner-Iter.     Column Row Layer    Maximum-Head-Change  Column Row Layer    Maximum-Flux-Residual          L2-NORM 
          0                 1           2             1    1     1      -0.3905818517E-01       1    7    1        -0.9143306809E-03      0.1382565119E-01
          0                 2           2             1    1     1       0.3531159242E-02       1    7    1         0.9142893757E-04      0.1345679601E-02
          0                 3           2             1    1     1      -0.2877732914E-03       1    7    1        -0.8229004110E-05      0.1278137930E-03
          0                 4           1             1    1     1       0.2090682993E-04       1    4    1        -0.9721156466E-06      0.1121547408E-04
          0                 5           1             1    1     1      -0.1315961400E-05       2    4    1         0.9296595849E-07      0.8566200792E-06
          0                 6           1             1    1     1       0.7205368404E-07       2    4    1        -0.6862865831E-08      0.5581502498E-07

    ------------------------------------------------
       NWT REQUIRED            6 OUTER ITERATIONS 
       AND A TOTAL OF          9 INNER ITERATIONS.
    ------------------------------------------------

 NO OUTPUT CONTROL FOR STRESS PERIOD   46   TIME STEP   24
 
 WELLS WITH REDUCED PUMPING FOR STRESS PERIOD    46 TIME STEP    24
   LAY   ROW   COL         APPL.Q          ACT.Q        GW-HEAD       CELL-BOT
     1     3    50  -0.144999E+01  -0.306983E+00   0.332177E-03   0.000000E+00
     1     5    55  -0.144999E+01  -0.236083E+00   0.283930E-03   0.000000E+00
 
 
 SOLVING FOR HEAD 
                                                   Max.-Head-Change                         Max.-Flux-Residual
  Residual-Control   Outer-Iter.   Inner-Iter.     Column Row Layer    Maximum-Head-Change  Column Row Layer    Maximum-Flux-Residual          L2-NORM 
          0                 1           2             1    1     1      -0.4290281158E-01       1    7    1        -0.9133015851E-03      0.1383154324E-01
          0                 2           2             1    1     1       0.3869457273E-02       1    1    1         0.9132549198E-04      0.1344861772E-02
          0                 3           2             1    1     1      -0.3143234244E-03       1    7    1        -0.8219743390E-05      0.1277448297E-03
          0                 4           1             1    1     1       0.2273163132E-04       1    4    1        -0.9804715972E-06      0.1123090788E-04
          0                 5           1             1    1     1      -0.1413810464E-05       2    4    1         0.9408783797E-07      0.8570705919E-06
          0                 6           1             1    1     1       0.7651392247E-07       2    4    1        -0.6955414023E-08      0.5584365948E-07

    ------------------------------------------------
       NWT REQUIRED            6 OUTER ITERATIONS 
       AND A TOTAL OF          9 INNER ITERATIONS.
    ------------------------------------------------

 NO OUTPUT CONTROL FOR STRESS PERIOD   46   TIME STEP   25
 
 WELLS WITH REDUCED PUMPING FOR STRESS PERIOD    46 TIME STEP    25
   LAY   ROW   COL         APPL.Q          ACT.Q        GW-HEAD       CELL-BOT
     1     3    50  -0.145002E+01  -0.306585E+00   0.331929E-03   0.000000E+00
     1     5    55  -0.145002E+01  -0.235817E+00   0.283749E-03   0.000000E+00
 
 
 SOLVING FOR HEAD 
                                                   Max.-Head-Change                         Max.-Flux-Residual
  Residual-Control   Outer-Iter.   Inner-Iter.     Column Row Layer    Maximum-Head-Change  Column Row Layer    Maximum-Flux-Residual          L2-NORM 
          0                 1           2             1    1     1      -0.4712105843E-01       1    7    1        -0.9121796780E-03      0.1384699689E-01
          0                 2           2             1    1     1       0.4240289828E-02       1    1    1         0.9121270373E-04      0.1345603110E-02
          0                 3           2             1    1     1      -0.3433828989E-03       1    7    1        -0.8209646949E-05      0.1278143111E-03
          0                 4           1             1    1     1       0.2472131114E-04       1    4    1        -0.9880497416E-06      0.1125438262E-04
          0                 5           1             1    1     1      -0.1517178660E-05       2    4    1         0.9511254007E-07      0.8570076332E-06
          0                 6           1             1    1     1       0.8107050960E-07       2    4    1        -0.7037634475E-08      0.5578317252E-07

    ------------------------------------------------
       NWT REQUIRED            6 OUTER ITERATIONS 
       AND A TOTAL OF          9 INNER ITERATIONS.
    ------------------------------------------------

 NO OUTPUT CONTROL FOR STRESS PERIOD   46   TIME STEP   26
 
 WELLS WITH REDUCED PUMPING FOR STRESS PERIOD    46 TIME STEP    26
   LAY   ROW   COL         APPL.Q          ACT.Q        GW-HEAD       CELL-BOT
     1     3    50  -0.145001E+01  -0.306156E+00   0.331665E-03   0.000000E+00
     1     5    55  -0.145001E+01  -0.235531E+00   0.283558E-03   0.000000E+00
 
 
 SOLVING FOR HEAD 
                                                   Max.-Head-Change                         Max.-Flux-Residual
  Residual-Control   Outer-Iter.   Inner-Iter.     Column Row Layer    Maximum-Head-Change  Column Row Layer    Maximum-Flux-Residual          L2-NORM 
          0                 1           3             3    4     1      -0.5226275578E-01       1    7    1        -0.9109556600E-03      0.1393235481E-01
          0                 2           2             2    1     1       0.4696509003E-02       1    7    1         0.9109535644E-04      0.1345545702E-02
          0                 3           2             3    1     1      -0.3796789253E-03       1    7    1        -0.8199100116E-05      0.1271898239E-03
          0                 4           1             3    1     1       0.2723290130E-04       1    4    1        -0.9575447848E-06      0.1119041765E-04
          0                 5           1             1    1     1      -0.1641899671E-05       2    4    1         0.9236891785E-07      0.8489646023E-06
          0                 6           1             1    1     1       0.8625679097E-07       2    4    1        -0.6899504967E-08      0.5519545099E-07

    ------------------------------------------------
       NWT REQUIRED            6 OUTER ITERATIONS 
       AND A TOTAL OF         10 INNER ITERATIONS.
    ------------------------------------------------

 NO OUTPUT CONTROL FOR STRESS PERIOD   46   TIME STEP   27
 
 WELLS WITH REDUCED PUMPING FOR STRESS PERIOD    46 TIME STEP    27
   LAY   ROW   COL         APPL.Q          ACT.Q        GW-HEAD       CELL-BOT
     1     3    50  -0.145000E+01  -0.305689E+00   0.331377E-03   0.000000E+00
     1     5    55  -0.145000E+01  -0.235224E+00   0.283352E-03   0.000000E+00
 
 
 SOLVING FOR HEAD 
                                                   Max.-Head-Change                         Max.-Flux-Residual
  Residual-Control   Outer-Iter.   Inner-Iter.     Column Row Layer    Maximum-Head-Change  Column Row Layer    Maximum-Flux-Residual          L2-NORM 
          0                 1           3             1    4     1      -0.5941743522E-01       3    5    1        -0.9211825243E-03      0.1416829455E-01
          0                 2           2             1    1     1       0.5281837383E-02       2    3    1         0.9213060515E-04      0.1355546375E-02
          0                 3           2             1    1     1      -0.4260522327E-03       3    5    1        -0.8292386408E-05      0.1271868825E-03
          0                 4           1             1    1     1       0.3042548321E-04       1    4    1        -0.8982610069E-06      0.1116797011E-04
          0                 5           1             1    1     1      -0.1798204944E-05       2    4    1         0.9065172080E-07      0.8422787138E-06
          0                 6           1             1    1     1       0.9248715114E-07       2    4    1        -0.6842885369E-08      0.5461687887E-07

    ------------------------------------------------
       NWT REQUIRED            6 OUTER ITERATIONS 
       AND A TOTAL OF         10 INNER ITERATIONS.
    ------------------------------------------------

 NO OUTPUT CONTROL FOR STRESS PERIOD   46   TIME STEP   28
 
 WELLS WITH REDUCED PUMPING FOR STRESS PERIOD    46 TIME STEP    28
   LAY   ROW   COL         APPL.Q          ACT.Q        GW-HEAD       CELL-BOT
     1     3    50  -0.144997E+01  -0.305185E+00   0.331069E-03   0.000000E+00
     1     5    55  -0.144997E+01  -0.234888E+00   0.283130E-03   0.000000E+00
 
 
 SOLVING FOR HEAD 
                                                   Max.-Head-Change                         Max.-Flux-Residual
  Residual-Control   Outer-Iter.   Inner-Iter.     Column Row Layer    Maximum-Head-Change  Column Row Layer    Maximum-Flux-Residual          L2-NORM 
          0                 1           3             1    4     1      -0.6649453864E-01       1    5    1        -0.9477331169E-03      0.1446309274E-01
          0                 2           2             1    1     1       0.5933018280E-02       1    5    1         0.9478020896E-04      0.1381473816E-02
          0                 3           2             1    1     1      -0.4783848733E-03       1    5    1        -0.8530999677E-05      0.1292029224E-03
          0                 4           1             1    1     1       0.3407702892E-04       1    4    1        -0.9211049417E-06      0.1132859977E-04
          0                 5           1             1    1     1      -0.1968600630E-05       2    4    1         0.9300476833E-07      0.8469876379E-06
          0                 6           1             1    1     1       0.9903475558E-07       2    4    1        -0.6994298474E-08      0.5464976790E-07

    ------------------------------------------------
       NWT REQUIRED            6 OUTER ITERATIONS 
       AND A TOTAL OF         10 INNER ITERATIONS.
    ------------------------------------------------

 NO OUTPUT CONTROL FOR STRESS PERIOD   46   TIME STEP   29
 
 WELLS WITH REDUCED PUMPING FOR STRESS PERIOD    46 TIME STEP    29
   LAY   ROW   COL         APPL.Q          ACT.Q        GW-HEAD       CELL-BOT
     1     3    50  -0.145002E+01  -0.304641E+00   0.330727E-03   0.000000E+00
     1     5    55  -0.145002E+01  -0.234530E+00   0.282885E-03   0.000000E+00
 
 
 SOLVING FOR HEAD 
                                                   Max.-Head-Change                         Max.-Flux-Residual
  Residual-Control   Outer-Iter.   Inner-Iter.     Column Row Layer    Maximum-Head-Change  Column Row Layer    Maximum-Flux-Residual          L2-NORM 
          0                 1           3             1    4     1      -0.7437261543E-01       1    5    1        -0.9656566634E-03      0.1477861615E-01
          0                 2           2             1    1     1       0.6651544203E-02       1    5    1         0.9657226048E-04      0.1410333839E-02
          0                 3           2             1    1     1      -0.5362720882E-03       1    5    1        -0.8692384535E-05      0.1314980899E-03
          0                 4           1             1    1     1       0.3810734888E-04       1    4    1        -0.9252889974E-06      0.1150801354E-04
          0                 5           1             1    1     1      -0.2140152186E-05       9    4    1         0.9385541944E-07      0.8506765107E-06
          0                 6           1             1    1     1       0.1047954401E-06       2    4    1        -0.7034103078E-08      0.5453827872E-07

    ------------------------------------------------
       NWT REQUIRED            6 OUTER ITERATIONS 
       AND A TOTAL OF         10 INNER ITERATIONS.
    ------------------------------------------------

 NO OUTPUT CONTROL FOR STRESS PERIOD   46   TIME STEP   30
 
 WELLS WITH REDUCED PUMPING FOR STRESS PERIOD    46 TIME STEP    30
   LAY   ROW   COL         APPL.Q          ACT.Q        GW-HEAD       CELL-BOT
     1     3    50  -0.144983E+01  -0.304022E+00   0.330368E-03   0.000000E+00
     1     5    55  -0.144983E+01  -0.234116E+00   0.282627E-03   0.000000E+00
 



 STREAM LISTING     PERIOD     46   STEP       30

 LAYER ROW COL. STREAM  RCH.   FLOW INTO    STREAM     FLOW OUT OF   OVRLND.    DIRECT     STREAM      STREAM      STREAM     STREAM  STREAMBED   FLOW TO   CHNG. UNSAT. 
                SEG.NO.  NO.   STRM. RCH.    LOSS       STRM. RCH.   RUNOFF     PRECIP       ET         HEAD        DEPTH      WIDTH  CONDCTNC.   WAT. TAB.

   1    4    1     1     1    5.0000E-01  4.2219E-04   4.9958E-01  0.000E+00  0.000E+00  0.000E+00  1.40385E+02  5.346E-01  2.452E+00  4.081E-04  8.949E-04 -4.725E-04
   1    4    2     1     2    4.9958E-01  4.2204E-04   4.9916E-01  0.000E+00  0.000E+00  0.000E+00  1.40084E+02  5.344E-01  2.452E+00  4.080E-04  8.894E-04 -4.671E-04
   1    4    3     1     3    4.9916E-01  4.2189E-04   4.9873E-01  0.000E+00  0.000E+00  0.000E+00  1.39784E+02  5.342E-01  2.452E+00  4.079E-04  8.846E-04 -4.624E-04
   1    4    4     1     4    4.9873E-01  4.2174E-04   4.9831E-01  0.000E+00  0.000E+00  0.000E+00  1.39484E+02  5.340E-01  2.451E+00  4.079E-04  8.806E-04 -4.586E-04
   1    4    5     1     5    4.9831E-01  4.2159E-04   4.9789E-01  0.000E+00  0.000E+00  0.000E+00  1.39184E+02  5.338E-01  2.451E+00  4.078E-04  8.774E-04 -4.555E-04
   1    4    6     1     6    4.9789E-01  4.2144E-04   4.9747E-01  0.000E+00  0.000E+00  0.000E+00  1.38884E+02  5.336E-01  2.451E+00  4.077E-04  8.749E-04 -4.532E-04
   1    4    7     1     7    4.9747E-01  4.2129E-04   4.9705E-01  0.000E+00  0.000E+00  0.000E+00  1.38583E+02  5.334E-01  2.451E+00  4.077E-04  8.733E-04 -4.517E-04
   1    4    8     1     8    4.9705E-01  4.2114E-04   4.9663E-01  0.000E+00  0.000E+00  0.000E+00  1.38283E+02  5.332E-01  2.450E+00  4.076E-04  8.724E-04 -4.510E-04
   1    4    9     1     9    4.9663E-01  4.2099E-04   4.9621E-01  0.000E+00  0.000E+00  0.000E+00  1.37983E+02  5.330E-01  2.450E+00  4.075E-04  8.723E-04 -4.511E-04
   1    4   10     1    10    4.9621E-01  4.2083E-04   4.9578E-01  0.000E+00  0.000E+00  0.000E+00  1.37683E+02  5.328E-01  2.450E+00  4.075E-04  8.730E-04 -4.519E-04
   1    4   11     1    11    4.9578E-01  4.2068E-04   4.9536E-01  0.000E+00  0.000E+00  0.000E+00  1.37383E+02  5.326E-01  2.450E+00  4.074E-04  8.746E-04 -4.536E-04
   1    4   12     1    12    4.9536E-01  4.2053E-04   4.9494E-01  0.000E+00  0.000E+00  0.000E+00  1.37082E+02  5.324E-01  2.449E+00  4.073E-04  8.769E-04 -4.561E-04
   1    4   13     1    13    4.9494E-01  4.2038E-04   4.9452E-01  0.000E+00  0.000E+00  0.000E+00  1.36782E+02  5.322E-01  2.449E+00  4.073E-04  8.801E-04 -4.595E-04
   1    4   14     1    14    4.9452E-01  4.2023E-04   4.9410E-01  0.000E+00  0.000E+00  0.000E+00  1.36482E+02  5.320E-01  2.449E+00  4.072E-04  8.841E-04 -4.636E-04
   1    4   15     1    15    4.9410E-01  4.2008E-04   4.9368E-01  0.000E+00  0.000E+00  0.000E+00  1.36182E+02  5.318E-01  2.449E+00  4.071E-04  8.890E-04 -4.686E-04
   1    4   16     1    16    4.9368E-01  4.1993E-04   4.9326E-01  0.000E+00  0.000E+00  0.000E+00  1.35882E+02  5.316E-01  2.448E+00  4.071E-04  8.947E-04 -4.745E-04
   1    4   17     1    17    4.9326E-01  4.1978E-04   4.9284E-01  0.000E+00  0.000E+00  0.000E+00  1.35581E+02  5.314E-01  2.448E+00  4.070E-04  9.013E-04 -4.813E-04
   1    4   18     1    18    4.9284E-01  4.1963E-04   4.9242E-01  0.000E+00  0.000E+00  0.000E+00  1.35281E+02  5.312E-01  2.448E+00  4.069E-04  9.088E-04 -4.889E-04
   1    4   19     1    19    4.9242E-01  4.1948E-04   4.9200E-01  0.000E+00  0.000E+00  0.000E+00  1.34981E+02  5.310E-01  2.448E+00  4.069E-04  9.172E-04 -4.975E-04
   1    4   20     1    20    4.9200E-01  4.1933E-04   4.9158E-01  0.000E+00  0.000E+00  0.000E+00  1.34681E+02  5.308E-01  2.448E+00  4.068E-04  9.265E-04 -5.069E-04
   1    4   21     1    21    4.9158E-01  4.1918E-04   4.9117E-01  0.000E+00  0.000E+00  0.000E+00  1.34381E+02  5.306E-01  2.447E+00  4.067E-04  9.368E-04 -5.173E-04
   1    4   22     1    22    4.9117E-01  4.1903E-04   4.9075E-01  0.000E+00  0.000E+00  0.000E+00  1.34080E+02  5.304E-01  2.447E+00  4.067E-04  9.480E-04 -5.287E-04
   1    4   23     1    23    4.9075E-01  4.1888E-04   4.9033E-01  0.000E+00  0.000E+00  0.000E+00  1.33780E+02  5.302E-01  2.447E+00  4.066E-04  9.602E-04 -5.411E-04
   1    4   24     1    24    4.9033E-01  4.1873E-04   4.8991E-01  0.000E+00  0.000E+00  0.000E+00  1.33480E+02  5.300E-01  2.447E+00  4.066E-04  9.805E-04 -5.615E-04
   1    4   25     1    25    4.8991E-01  4.1858E-04   4.8949E-01  0.000E+00  0.000E+00  0.000E+00  1.33180E+02  5.298E-01  2.446E+00  4.065E-04  9.948E-04 -5.759E-04
   1    4   26     1    26    4.8949E-01  4.1843E-04   4.8907E-01  0.000E+00  0.000E+00  0.000E+00  1.32880E+02  5.296E-01  2.446E+00  4.064E-04  1.008E-03 -5.894E-04
   1    4   27     1    27    4.8907E-01  4.1828E-04   4.8865E-01  0.000E+00  0.000E+00  0.000E+00  1.32579E+02  5.294E-01  2.446E+00  4.064E-04  1.022E-03 -6.037E-04
   1    4   28     1    28    4.8865E-01  4.1813E-04   4.8824E-01  0.000E+00  0.000E+00  0.000E+00  1.32279E+02  5.291E-01  2.446E+00  4.063E-04  1.037E-03 -6.190E-04
   1    4   29     1    29    4.8824E-01  4.1798E-04   4.8782E-01  0.000E+00  0.000E+00  0.000E+00  1.31979E+02  5.289E-01  2.445E+00  4.062E-04  1.054E-03 -6.354E-04
   1    4   30     1    30    4.8782E-01  4.1783E-04   4.8740E-01  0.000E+00  0.000E+00  0.000E+00  1.31679E+02  5.287E-01  2.445E+00  4.062E-04  1.082E-03 -6.642E-04
   1    4   31     1    31    4.8740E-01  4.1768E-04   4.8698E-01  0.000E+00  0.000E+00  0.000E+00  1.31379E+02  5.285E-01  2.445E+00  4.061E-04  1.113E-03 -6.947E-04
   1    4   32     1    32    4.8698E-01  4.1753E-04   4.8656E-01  0.000E+00  0.000E+00  0.000E+00  1.31078E+02  5.283E-01  2.445E+00  4.060E-04  1.146E-03 -7.282E-04
   1    4   33     1    33    4.8656E-01  4.1738E-04   4.8615E-01  0.000E+00  0.000E+00  0.000E+00  1.30778E+02  5.281E-01  2.444E+00  4.060E-04  1.189E-03 -7.718E-04
   1    4   34     1    34    4.8615E-01  4.1723E-04   4.8573E-01  0.000E+00  0.000E+00  0.000E+00  1.30478E+02  5.279E-01  2.444E+00  4.059E-04  1.223E-03 -8.054E-04
   1    4   35     1    35    4.8573E-01  4.1708E-04   4.8531E-01  0.000E+00  0.000E+00  0.000E+00  1.30178E+02  5.277E-01  2.444E+00  4.058E-04  1.258E-03 -8.411E-04
   1    4   36     1    36    4.8531E-01  4.1693E-04   4.8490E-01  0.000E+00  0.000E+00  0.000E+00  1.29878E+02  5.275E-01  2.444E+00  4.058E-04  1.285E-03 -8.682E-04
   1    4   37     1    37    4.8490E-01  4.1678E-04   4.8448E-01  0.000E+00  0.000E+00  0.000E+00  1.29577E+02  5.273E-01  2.443E+00  4.057E-04  1.318E-03 -9.014E-04
   1    4   38     1    38    4.8448E-01  4.1663E-04   4.8406E-01  0.000E+00  0.000E+00  0.000E+00  1.29277E+02  5.271E-01  2.443E+00  4.056E-04  1.360E-03 -9.432E-04
   1    4   39     1    39    4.8406E-01  4.1648E-04   4.8365E-01  0.000E+00  0.000E+00  0.000E+00  1.28977E+02  5.269E-01  2.443E+00  4.056E-04  1.386E-03 -9.695E-04
   1    4   40     1    40    4.8365E-01  4.1633E-04   4.8323E-01  0.000E+00  0.000E+00  0.000E+00  1.28677E+02  5.267E-01  2.443E+00  4.055E-04  1.412E-03 -9.955E-04
   1    4   41     1    41    4.8323E-01  4.1618E-04   4.8281E-01  0.000E+00  0.000E+00  0.000E+00  1.28377E+02  5.265E-01  2.442E+00  4.054E-04  1.425E-03 -1.008E-03
   1    4   42     1    42    4.8281E-01  4.1603E-04   4.8240E-01  0.000E+00  0.000E+00  0.000E+00  1.28076E+02  5.263E-01  2.442E+00  4.054E-04  1.427E-03 -1.011E-03
   1    4   43     1    43    4.8240E-01  4.1588E-04   4.8198E-01  0.000E+00  0.000E+00  0.000E+00  1.27776E+02  5.261E-01  2.442E+00  4.053E-04  1.515E-03 -1.099E-03
   1    4   44     1    44    4.8198E-01  4.1573E-04   4.8157E-01  0.000E+00  0.000E+00  0.000E+00  1.27476E+02  5.259E-01  2.442E+00  4.052E-04  1.516E-03 -1.100E-03
   1    4   45     1    45    4.8157E-01  4.1558E-04   4.8115E-01  0.000E+00  0.000E+00  0.000E+00  1.27176E+02  5.257E-01  2.441E+00  4.052E-04  1.541E-03 -1.126E-03
   1    4   46     1    46    4.8115E-01  4.1543E-04   4.8073E-01  0.000E+00  0.000E+00  0.000E+00  1.26876E+02  5.255E-01  2.441E+00  4.051E-04  1.571E-03 -1.155E-03
   1    4   47     1    47    4.8073E-01  4.1528E-04   4.8032E-01  0.000E+00  0.000E+00  0.000E+00  1.26575E+02  5.253E-01  2.441E+00  4.050E-04  1.427E-03 -1.011E-03
   1    4   48     1    48    4.8032E-01  4.1513E-04   4.7990E-01  0.000E+00  0.000E+00  0.000E+00  1.26275E+02  5.251E-01  2.441E+00  4.050E-04  1.429E-03 -1.014E-03
   1    4   49     1    49    4.7990E-01  4.1498E-04   4.7949E-01  0.000E+00  0.000E+00  0.000E+00  1.25975E+02  5.249E-01  2.441E+00  4.049E-04  1.433E-03 -1.018E-03
   1    4   50     1    50    4.7949E-01  4.1483E-04   4.7907E-01  0.000E+00  0.000E+00  0.000E+00  1.25675E+02  5.247E-01  2.440E+00  4.048E-04  1.438E-03 -1.023E-03
   1    4   51     1    51    4.7907E-01  4.1469E-04   4.7866E-01  0.000E+00  0.000E+00  0.000E+00  1.25374E+02  5.245E-01  2.440E+00  4.048E-04  1.434E-03 -1.019E-03
   1    4   52     1    52    4.7866E-01  4.1454E-04   4.7825E-01  0.000E+00  0.000E+00  0.000E+00  1.25074E+02  5.243E-01  2.440E+00  4.047E-04  1.432E-03 -1.017E-03
   1    4   53     1    53    4.7825E-01  4.1439E-04   4.7783E-01  0.000E+00  0.000E+00  0.000E+00  1.24774E+02  5.241E-01  2.440E+00  4.046E-04  1.431E-03 -1.017E-03
   1    4   54     1    54    4.7783E-01  4.1424E-04   4.7742E-01  0.000E+00  0.000E+00  0.000E+00  1.24474E+02  5.239E-01  2.439E+00  4.046E-04  1.432E-03 -1.018E-03
   1    4   55     1    55    4.7742E-01  4.1409E-04   4.7700E-01  0.000E+00  0.000E+00  0.000E+00  1.24174E+02  5.237E-01  2.439E+00  4.045E-04  1.441E-03 -1.027E-03
   1    4   56     1    56    4.7700E-01  4.1394E-04   4.7659E-01  0.000E+00  0.000E+00  0.000E+00  1.23873E+02  5.235E-01  2.439E+00  4.044E-04  1.431E-03 -1.017E-03
   1    4   57     1    57    4.7659E-01  4.1379E-04   4.7617E-01  0.000E+00  0.000E+00  0.000E+00  1.23573E+02  5.233E-01  2.439E+00  4.044E-04  1.428E-03 -1.014E-03
   1    4   58     1    58    4.7617E-01  4.1364E-04   4.7576E-01  0.000E+00  0.000E+00  0.000E+00  1.23273E+02  5.231E-01  2.438E+00  4.043E-04  1.426E-03 -1.012E-03
   1    4   59     1    59    4.7576E-01  4.1349E-04   4.7535E-01  0.000E+00  0.000E+00  0.000E+00  1.22973E+02  5.229E-01  2.438E+00  4.042E-04  1.560E-03 -1.146E-03
   1    4   60     1    60    4.7535E-01  4.1334E-04   4.7493E-01  0.000E+00  0.000E+00  0.000E+00  1.22673E+02  5.227E-01  2.438E+00  4.042E-04  1.568E-03 -1.154E-03
   1    4   61     1    61    4.7493E-01  4.1319E-04   4.7452E-01  0.000E+00  0.000E+00  0.000E+00  1.22372E+02  5.225E-01  2.438E+00  4.041E-04  1.552E-03 -1.138E-03
   1    4   62     1    62    4.7452E-01  4.1304E-04   4.7411E-01  0.000E+00  0.000E+00  0.000E+00  1.22072E+02  5.223E-01  2.437E+00  4.040E-04  1.513E-03 -1.100E-03
   1    4   63     1    63    4.7411E-01  4.1289E-04   4.7370E-01  0.000E+00  0.000E+00  0.000E+00  1.21772E+02  5.221E-01  2.437E+00  4.040E-04  1.469E-03 -1.056E-03
   1    4   64     1    64    4.7370E-01  4.1275E-04   4.7328E-01  0.000E+00  0.000E+00  0.000E+00  1.21472E+02  5.219E-01  2.437E+00  4.039E-04  1.423E-03 -1.010E-03
   1    4   65     1    65    4.7328E-01  4.1260E-04   4.7287E-01  0.000E+00  0.000E+00  0.000E+00  1.21172E+02  5.217E-01  2.437E+00  4.038E-04  1.408E-03 -9.952E-04
   1    4   66     1    66    4.7287E-01  4.1245E-04   4.7246E-01  0.000E+00  0.000E+00  0.000E+00  1.20871E+02  5.215E-01  2.436E+00  4.038E-04  1.376E-03 -9.632E-04
   1    4   67     1    67    4.7246E-01  4.1230E-04   4.7205E-01  0.000E+00  0.000E+00  0.000E+00  1.20571E+02  5.213E-01  2.436E+00  4.037E-04  1.337E-03 -9.246E-04
   1    4   68     1    68    4.7205E-01  4.1215E-04   4.7163E-01  0.000E+00  0.000E+00  0.000E+00  1.20271E+02  5.211E-01  2.436E+00  4.036E-04  1.291E-03 -8.786E-04
   1    4   69     1    69    4.7163E-01  4.1200E-04   4.7122E-01  0.000E+00  0.000E+00  0.000E+00  1.19971E+02  5.209E-01  2.436E+00  4.036E-04  1.255E-03 -8.426E-04
   1    4   70     1    70    4.7122E-01  4.1185E-04   4.7081E-01  0.000E+00  0.000E+00  0.000E+00  1.19671E+02  5.207E-01  2.435E+00  4.035E-04  1.208E-03 -7.958E-04
   1    4   71     1    71    4.7081E-01  4.1170E-04   4.7040E-01  0.000E+00  0.000E+00  0.000E+00  1.19370E+02  5.205E-01  2.435E+00  4.034E-04  1.171E-03 -7.595E-04
   1    4   72     1    72    4.7040E-01  4.1155E-04   4.6999E-01  0.000E+00  0.000E+00  0.000E+00  1.19070E+02  5.203E-01  2.435E+00  4.034E-04  1.146E-03 -7.338E-04
   1    4   73     1    73    4.6999E-01  4.1141E-04   4.6957E-01  0.000E+00  0.000E+00  0.000E+00  1.18770E+02  5.201E-01  2.435E+00  4.033E-04  1.095E-03 -6.833E-04
   1    4   74     1    74    4.6957E-01  4.1126E-04   4.6916E-01  0.000E+00  0.000E+00  0.000E+00  1.18470E+02  5.199E-01  2.434E+00  4.033E-04  1.068E-03 -6.564E-04
   1    4   75     1    75    4.6916E-01  4.1111E-04   4.6875E-01  0.000E+00  0.000E+00  0.000E+00  1.18170E+02  5.196E-01  2.434E+00  4.032E-04  1.042E-03 -6.304E-04
   1    4   76     1    76    4.6875E-01  4.1096E-04   4.6834E-01  0.000E+00  0.000E+00  0.000E+00  1.17869E+02  5.194E-01  2.434E+00  4.031E-04  1.003E-03 -5.917E-04
   1    4   77     1    77    4.6834E-01  4.1081E-04   4.6793E-01  0.000E+00  0.000E+00  0.000E+00  1.17569E+02  5.192E-01  2.434E+00  4.031E-04  9.475E-04 -5.365E-04
   1    4   78     1    78    4.6793E-01  4.1066E-04   4.6752E-01  0.000E+00  0.000E+00  0.000E+00  1.17269E+02  5.190E-01  2.433E+00  4.030E-04  9.134E-04 -5.025E-04
   1    4   79     1    79    4.6752E-01  4.1051E-04   4.6711E-01  0.000E+00  0.000E+00  0.000E+00  1.16969E+02  5.188E-01  2.433E+00  4.029E-04  8.869E-04 -4.762E-04
   1    4   80     1    80    4.6711E-01  4.1037E-04   4.6670E-01  0.000E+00  0.000E+00  0.000E+00  1.16669E+02  5.186E-01  2.433E+00  4.029E-04  8.612E-04 -4.506E-04
   1    4   81     1    81    4.6670E-01  4.1022E-04   4.6629E-01  0.000E+00  0.000E+00  0.000E+00  1.16368E+02  5.184E-01  2.433E+00  4.028E-04  8.457E-04 -4.353E-04
   1    4   82     1    82    4.6629E-01  4.1007E-04   4.6588E-01  0.000E+00  0.000E+00  0.000E+00  1.16068E+02  5.182E-01  2.433E+00  4.027E-04  8.181E-04 -4.078E-04
   1    4   83     1    83    4.6588E-01  4.0992E-04   4.6547E-01  0.000E+00  0.000E+00  0.000E+00  1.15768E+02  5.180E-01  2.432E+00  4.027E-04  7.913E-04 -3.812E-04
   1    4   84     1    84    4.6547E-01  4.0977E-04   4.6506E-01  0.000E+00  0.000E+00  0.000E+00  1.15468E+02  5.178E-01  2.432E+00  4.026E-04  7.652E-04 -3.553E-04
   1    4   85     1    85    4.6506E-01  4.0962E-04   4.6465E-01  0.000E+00  0.000E+00  0.000E+00  1.15168E+02  5.176E-01  2.432E+00  4.025E-04  7.399E-04 -3.301E-04
   1    4   86     1    86    4.6465E-01  4.0947E-04   4.6424E-01  0.000E+00  0.000E+00  0.000E+00  1.14867E+02  5.174E-01  2.432E+00  4.025E-04  7.392E-04 -3.295E-04
   1    4   87     1    87    4.6424E-01  4.0933E-04   4.6383E-01  0.000E+00  0.000E+00  0.000E+00  1.14567E+02  5.172E-01  2.431E+00  4.024E-04  7.240E-04 -3.145E-04
   1    4   88     1    88    4.6383E-01  4.0918E-04   4.6342E-01  0.000E+00  0.000E+00  0.000E+00  1.14267E+02  5.170E-01  2.431E+00  4.023E-04  6.891E-04 -2.797E-04
   1    4   89     1    89    4.6342E-01  4.0903E-04   4.6301E-01  0.000E+00  0.000E+00  0.000E+00  1.13967E+02  5.168E-01  2.431E+00  4.023E-04  6.636E-04 -2.544E-04
   1    4   90     1    90    4.6301E-01  4.0888E-04   4.6260E-01  0.000E+00  0.000E+00  0.000E+00  1.13667E+02  5.166E-01  2.431E+00  4.022E-04  6.389E-04 -2.298E-04
   1    4   91     1    91    4.6260E-01  4.0873E-04   4.6219E-01  0.000E+00  0.000E+00  0.000E+00  1.13366E+02  5.164E-01  2.430E+00  4.021E-04  6.150E-04 -2.061E-04
   1    4   92     1    92    4.6219E-01  4.0859E-04   4.6179E-01  0.000E+00  0.000E+00  0.000E+00  1.13066E+02  5.162E-01  2.430E+00  4.021E-04  6.154E-04 -2.066E-04
   1    4   93     1    93    4.6179E-01  4.0844E-04   4.6138E-01  0.000E+00  0.000E+00  0.000E+00  1.12766E+02  5.160E-01  2.430E+00  4.020E-04  5.690E-04 -1.604E-04
   1    4   94     1    94    4.6138E-01  4.0829E-04   4.6097E-01  0.000E+00  0.000E+00  0.000E+00  1.12466E+02  5.158E-01  2.430E+00  4.019E-04  5.575E-04 -1.490E-04
   1    4   95     1    95    4.6097E-01  4.0814E-04   4.6056E-01  0.000E+00  0.000E+00  0.000E+00  1.12166E+02  5.156E-01  2.429E+00  4.019E-04  5.336E-04 -1.253E-04
   1    4   96     1    96    4.6056E-01  4.0799E-04   4.6015E-01  0.000E+00  0.000E+00  0.000E+00  1.11865E+02  5.154E-01  2.429E+00  4.018E-04  5.104E-04 -1.022E-04
   1    4   97     1    97    4.6015E-01  4.0784E-04   4.5975E-01  0.000E+00  0.000E+00  0.000E+00  1.11565E+02  5.152E-01  2.429E+00  4.017E-04  4.878E-04 -7.974E-05
   1    4   98     1    98    4.5975E-01  4.0770E-04   4.5934E-01  0.000E+00  0.000E+00  0.000E+00  1.11265E+02  5.150E-01  2.429E+00  4.017E-04  4.658E-04 -5.792E-05
   1    4   99     1    99    4.5934E-01  4.0755E-04   4.5893E-01  0.000E+00  0.000E+00  0.000E+00  1.10965E+02  5.148E-01  2.428E+00  4.016E-04  4.671E-04 -5.939E-05
   1    4  100     1   100    4.5893E-01  4.0740E-04   4.5852E-01  0.000E+00  0.000E+00  0.000E+00  1.10665E+02  5.146E-01  2.428E+00  4.015E-04  4.696E-04 -6.199E-05



1
  VOLUMETRIC BUDGET FOR UNSATURATED ZONE BENEATH STREAMS AT END OF TIME STEP    30 STRESS PERIOD  46
  ------------------------------------------------------------------------------------------------

    CUMULATIVE VOLUMES             L**3    RATES FOR THIS TIME STEP         L**3/T
    ------------------                     ------------------------


          STREAM LOSS =     34963496.0000            STREAM LOSS =        4.1477E-02
    CHANGE IN STORAGE =      1306023.8750      CHANGE IN STORAGE =       -6.4939E-02
       RECHARGE TO GW =     33665132.0000         RECHARGE TO GW =            0.1064

             TOTAL IN =     34963496.0000               TOTAL IN =            0.1064

            TOTAL OUT =     34971156.0000              TOTAL OUT =            0.1064

             IN - OUT =        -7660.0000               IN - OUT =       -1.7479E-05

  PERCENT DISCREPANCY =           -0.01      PERCENT DISCREPANCY =            -0.00



1
  VOLUMETRIC BUDGET FOR ENTIRE MODEL AT END OF TIME STEP   30, STRESS PERIOD  46
  ------------------------------------------------------------------------------

     CUMULATIVE VOLUMES      L**3       RATES FOR THIS TIME STEP      L**3/T
     ------------------                 ------------------------

           IN:                                      IN:
           ---                                      ---
             STORAGE     =   115587896.0000               STORAGE     =           0.3381
       CONSTANT HEAD     =           0.0000         CONSTANT HEAD     =           0.0000
               WELLS     =           0.0000                 WELLS     =           0.0000
     HEAD DEP BOUNDS     =     3227296.7500       HEAD DEP BOUNDS     =       9.3593E-02
      STREAM LEAKAGE     =    33664716.0000        STREAM LEAKAGE     =           0.1064

                TOTAL IN =   152479904.0000                  TOTAL IN =           0.5381

          OUT:                                     OUT:
          ----                                     ----
             STORAGE     =     3105392.7500               STORAGE     =           0.0000
       CONSTANT HEAD     =           0.0000         CONSTANT HEAD     =           0.0000
               WELLS     =   133015144.0000                 WELLS     =           0.5381
     HEAD DEP BOUNDS     =    16359348.0000       HEAD DEP BOUNDS     =           0.0000
      STREAM LEAKAGE     =           0.0000        STREAM LEAKAGE     =           0.0000

               TOTAL OUT =   152479888.0000                 TOTAL OUT =           0.5381

                IN - OUT =          16.0000                  IN - OUT =      -5.9605E-08

     PERCENT DISCREPANCY =           0.00         PERCENT DISCREPANCY =          -0.00






         TIME SUMMARY AT END OF TIME STEP   30 IN STRESS PERIOD   46
                    SECONDS     MINUTES      HOURS       DAYS        YEARS
                    -----------------------------------------------------------
   TIME STEP LENGTH 2.49961E+05  4166.0      69.434      2.8931     7.92080E-03
 STRESS PERIOD TIME 2.59200E+06  43200.      720.00      30.000     8.21355E-02
         TOTAL TIME 1.19232E+08 1.98720E+06  33120.      1380.0      3.7782    
1
1
                            STRESS PERIOD NO.   47, LENGTH =   2592000.    
                            -----------------------------------------------

                              NUMBER OF TIME STEPS =    30

                               MULTIPLIER FOR DELT =     1.100

                            INITIAL TIME STEP SIZE =   15757.40    

 REUSING NON-PARAMETER WELLS FROM LAST STRESS PERIOD

      1 WELL 

 REUSING NON-PARAMETER GHB CELLS FROM LAST STRESS PERIOD

      7 GHB CELLS



 CLASSIFICATION & COUNT OF STREAM SEGMENTS BASED ON SOURCE OF INFLOW:

                HEADWATER     DIVERSION     RECEIVES TRIBUTARY FLOW
                ---------     ---------     -----------------------
                     1              0               0



                    INPUT DATA FOR EACH STREAM SEGMENT
 ---------------------------------------------------------------------------------------------

 SEGMENT    SEG.     INFLOW   OVERLAND   STREAM    STREAM   ICALC  OUTFLOW  DIVERSION PRIORITY
    NO.    LENGTH     RATE     RUNOFF      ET       PPT.    METH.  TO SEG.  FROM SEG.    NO.

      1  2.000E+04 2.100E+00 0.000E+00 0.000E+00 0.000E+00    2        0        0        0


         STREAMBED PROPERTIES AND STREAM DIMENSIONS

 SEGMENT     BED HYD. COND.      BED THICKNESS     ELEV.-TOP OF BED     WIDTH OF STREAM     DEPTH OF STREAM    STREAM ROUGHNESS
    No.     UPPER     LOWER     UPPER     LOWER     UPPER     LOWER     UPPER     LOWER     UPPER     LOWER   CHANNEL      BANK

     1  3.500E-07 3.500E-07                                                                                 3.000E-02 4.000E-02

  EIGHT POINT CROSS-SECTION DATA FOR SEGMENTS WITH ICALC = 2
    X VALUES X VALUES START FROM LEFT SIDE LOOKING DOWNSTREAM

     SEGMENT NO.        X1        X2        X3        X4        X5        X6        X7        X8
            1      0.000E+00 2.000E+00 4.000E+00 6.000E+00 8.000E+00 1.000E+01 1.200E+01 1.400E+01

    Z VALUES ARE RELATIVE TO STREAMBED ELEVATION

     SEGMENT NO.          Z1        Z2        Z3        Z4        Z5        Z6        Z7        Z8
            1      6.000E+00 4.500E+00 3.500E+00 0.000E+00 3.000E-01 3.500E+00 4.500E+00 6.000E+00



 
 SOLVING FOR HEAD 
                                                   Max.-Head-Change                         Max.-Flux-Residual
  Residual-Control   Outer-Iter.   Inner-Iter.     Column Row Layer    Maximum-Head-Change  Column Row Layer    Maximum-Flux-Residual          L2-NORM 
          0                 1           2             1    2     1      -0.4702495148E-02      50    3    1         0.8170879286E-01      0.1042041123E+00
          0                 2           2             1    1     1       0.4573651927E-03      50    3    1        -0.1352153086E-01      0.1750208208E-01
          0                 3           1             1    1     1      -0.4031312566E-04      50    3    1         0.1127237353E-02      0.1447056508E-02
          0                 4           1             1    1     1       0.3177789511E-05      50    3    1        -0.9094782158E-04      0.1168455328E-03
          0                 5           1             1    1     1      -0.2205595039E-06      50    3    1         0.6389373423E-05      0.8209264569E-05

    ------------------------------------------------
       NWT REQUIRED            5 OUTER ITERATIONS 
       AND A TOTAL OF          7 INNER ITERATIONS.
    ------------------------------------------------

 NO OUTPUT CONTROL FOR STRESS PERIOD   47   TIME STEP    1
 
 WELLS WITH REDUCED PUMPING FOR STRESS PERIOD    47 TIME STEP     1
   LAY   ROW   COL         APPL.Q          ACT.Q        GW-HEAD       CELL-BOT
     1     3    50  -0.106017E+01  -0.303977E+00   0.396071E-03   0.000000E+00
     1     5    55  -0.106017E+01  -0.234085E+00   0.337212E-03   0.000000E+00
 
 
 SOLVING FOR HEAD 
                                                   Max.-Head-Change                         Max.-Flux-Residual
  Residual-Control   Outer-Iter.   Inner-Iter.     Column Row Layer    Maximum-Head-Change  Column Row Layer    Maximum-Flux-Residual          L2-NORM 
          0                 1           2             1    1     1      -0.5179934344E-02       1    3    1        -0.9879549510E-03      0.1497214232E-01
          0                 2           2             1    1     1       0.5028137388E-03       1    3    1         0.9879454155E-04      0.1450439763E-02
          0                 3           1             1    1     1      -0.4424138318E-04       1    3    1        -0.8891557904E-05      0.1332618122E-03
          0                 4           1             1    1     1       0.3482766388E-05       1    5    1         0.7122138186E-06      0.1093343070E-04
          0                 5           1             1    1     1      -0.2415035071E-06       1    5    1        -0.5006795156E-07      0.7807315389E-06

    ------------------------------------------------
       NWT REQUIRED            5 OUTER ITERATIONS 
       AND A TOTAL OF          7 INNER ITERATIONS.
    ------------------------------------------------

 NO OUTPUT CONTROL FOR STRESS PERIOD   47   TIME STEP    2
 
 WELLS WITH REDUCED PUMPING FOR STRESS PERIOD    47 TIME STEP     2
   LAY   ROW   COL         APPL.Q          ACT.Q        GW-HEAD       CELL-BOT
     1     3    50  -0.106017E+01  -0.303940E+00   0.396043E-03   0.000000E+00
     1     5    55  -0.106017E+01  -0.234060E+00   0.337191E-03   0.000000E+00
 
 
 SOLVING FOR HEAD 
                                                   Max.-Head-Change                         Max.-Flux-Residual
  Residual-Control   Outer-Iter.   Inner-Iter.     Column Row Layer    Maximum-Head-Change  Column Row Layer    Maximum-Flux-Residual          L2-NORM 
          0                 1           2             1    1     1      -0.5704148286E-02       1    3    1        -0.9873333095E-03      0.1499157987E-01
          0                 2           2             1    1     1       0.5524029805E-03       1    3    1         0.9873223060E-04      0.1454467260E-02
          0                 3           1             1    1     1      -0.4850694680E-04       1    3    1        -0.8885956586E-05      0.1338157175E-03
          0                 4           1             1    1     1       0.3812534659E-05       1    3    1         0.7117651144E-06      0.1100573169E-04
          0                 5           1             1    1     1      -0.2640732341E-06       1    4    1         0.5066618414E-07      0.7878333545E-06

    ------------------------------------------------
       NWT REQUIRED            5 OUTER ITERATIONS 
       AND A TOTAL OF          7 INNER ITERATIONS.
    ------------------------------------------------

 NO OUTPUT CONTROL FOR STRESS PERIOD   47   TIME STEP    3
 
 WELLS WITH REDUCED PUMPING FOR STRESS PERIOD    47 TIME STEP     3
   LAY   ROW   COL         APPL.Q          ACT.Q        GW-HEAD       CELL-BOT
     1     3    50  -0.105986E+01  -0.303895E+00   0.396076E-03   0.000000E+00
     1     5    55  -0.105986E+01  -0.234029E+00   0.337223E-03   0.000000E+00
 
 
 SOLVING FOR HEAD 
                                                   Max.-Head-Change                         Max.-Flux-Residual
  Residual-Control   Outer-Iter.   Inner-Iter.     Column Row Layer    Maximum-Head-Change  Column Row Layer    Maximum-Flux-Residual          L2-NORM 
          0                 1           2             8    4     1      -0.6390091522E-02       1    3    1        -0.9859315497E-03      0.1504032115E-01
          0                 2           2             1    1     1       0.6064788606E-03       1    3    1         0.9859197050E-04      0.1456127893E-02
          0                 3           1             1    1     1      -0.5313665907E-04       1    3    1        -0.8873340512E-05      0.1340112136E-03
          0                 4           1             1    1     1       0.4168877543E-05       1    3    1         0.7107545237E-06      0.1105074581E-04
          0                 5           1             1    1     1      -0.2883697121E-06       1    4    1         0.5316091745E-07      0.7934894246E-06

    ------------------------------------------------
       NWT REQUIRED            5 OUTER ITERATIONS 
       AND A TOTAL OF          7 INNER ITERATIONS.
    ------------------------------------------------

 NO OUTPUT CONTROL FOR STRESS PERIOD   47   TIME STEP    4
 
 WELLS WITH REDUCED PUMPING FOR STRESS PERIOD    47 TIME STEP     4
   LAY   ROW   COL         APPL.Q          ACT.Q        GW-HEAD       CELL-BOT
     1     3    50  -0.106015E+01  -0.303845E+00   0.395976E-03   0.000000E+00
     1     5    55  -0.106015E+01  -0.233996E+00   0.337144E-03   0.000000E+00
 
 
 SOLVING FOR HEAD 
                                                   Max.-Head-Change                         Max.-Flux-Residual
  Residual-Control   Outer-Iter.   Inner-Iter.     Column Row Layer    Maximum-Head-Change  Column Row Layer    Maximum-Flux-Residual          L2-NORM 
          0                 1           2             4    4     1      -0.7060317904E-02       7    5    1        -0.9964278752E-03      0.1509124198E-01
          0                 2           2             4    1     1       0.6666216739E-03       7    5    1         0.9964168207E-04      0.1461123937E-02
          0                 3           1             3    1     1      -0.5822657059E-04       7    3    1        -0.8967828549E-05      0.1346050490E-03
          0                 4           1             2    1     1       0.4556656905E-05       7    3    1         0.7183228981E-06      0.1112942213E-04
          0                 5           1             2    1     1      -0.3145803010E-06       1    4    1         0.5580676188E-07      0.8015981220E-06

    ------------------------------------------------
       NWT REQUIRED            5 OUTER ITERATIONS 
       AND A TOTAL OF          7 INNER ITERATIONS.
    ------------------------------------------------

 NO OUTPUT CONTROL FOR STRESS PERIOD   47   TIME STEP    5
 
 WELLS WITH REDUCED PUMPING FOR STRESS PERIOD    47 TIME STEP     5
   LAY   ROW   COL         APPL.Q          ACT.Q        GW-HEAD       CELL-BOT
     1     3    50  -0.106007E+01  -0.303791E+00   0.395950E-03   0.000000E+00
     1     5    55  -0.106007E+01  -0.233960E+00   0.337127E-03   0.000000E+00
 
 
 SOLVING FOR HEAD 
                                                   Max.-Head-Change                         Max.-Flux-Residual
  Residual-Control   Outer-Iter.   Inner-Iter.     Column Row Layer    Maximum-Head-Change  Column Row Layer    Maximum-Flux-Residual          L2-NORM 
          0                 1           2             1    4     1      -0.7793756882E-02       4    3    1        -0.1005273681E-02      0.1513746405E-01
          0                 2           2             4    1     1       0.7351406057E-03       4    3    1         0.1005258167E-03      0.1466292141E-02
          0                 3           1             4    1     1      -0.6407512017E-04       4    3    1        -0.9047411982E-05      0.1352304906E-03
          0                 4           1             4    1     1       0.5003835120E-05       4    3    1         0.7246854068E-06      0.1121146529E-04
          0                 5           1             4    1     1      -0.3448233972E-06       4    4    1         0.5794528590E-07      0.8100827044E-06

    ------------------------------------------------
       NWT REQUIRED            5 OUTER ITERATIONS 
       AND A TOTAL OF          7 INNER ITERATIONS.
    ------------------------------------------------

 NO OUTPUT CONTROL FOR STRESS PERIOD   47   TIME STEP    6
 
 WELLS WITH REDUCED PUMPING FOR STRESS PERIOD    47 TIME STEP     6
   LAY   ROW   COL         APPL.Q          ACT.Q        GW-HEAD       CELL-BOT
     1     3    50  -0.105994E+01  -0.303731E+00   0.395934E-03   0.000000E+00
     1     5    55  -0.105994E+01  -0.233921E+00   0.337119E-03   0.000000E+00
 
 
 SOLVING FOR HEAD 
                                                   Max.-Head-Change                         Max.-Flux-Residual
  Residual-Control   Outer-Iter.   Inner-Iter.     Column Row Layer    Maximum-Head-Change  Column Row Layer    Maximum-Flux-Residual          L2-NORM 
          0                 1           2             1    3     1      -0.8483970020E-02       2    3    1        -0.1007904454E-02      0.1516998271E-01
          0                 2           2             2    1     1       0.8097080445E-03       2    3    1         0.1007886891E-03      0.1470718916E-02
          0                 3           1             3    1     1      -0.7038320053E-04       2    3    1        -0.9071081735E-05      0.1358165281E-03
          0                 4           1             3    1     1       0.5483282598E-05       2    3    1         0.7265769817E-06      0.1129090876E-04
          0                 5           1             3    1     1      -0.3771019186E-06       2    4    1         0.6068382419E-07      0.8184751903E-06

    ------------------------------------------------
       NWT REQUIRED            5 OUTER ITERATIONS 
       AND A TOTAL OF          7 INNER ITERATIONS.
    ------------------------------------------------

 NO OUTPUT CONTROL FOR STRESS PERIOD   47   TIME STEP    7
 
 WELLS WITH REDUCED PUMPING FOR STRESS PERIOD    47 TIME STEP     7
   LAY   ROW   COL         APPL.Q          ACT.Q        GW-HEAD       CELL-BOT
     1     3    50  -0.105988E+01  -0.303666E+00   0.395897E-03   0.000000E+00
     1     5    55  -0.105988E+01  -0.233878E+00   0.337095E-03   0.000000E+00
 
 
 SOLVING FOR HEAD 
                                                   Max.-Head-Change                         Max.-Flux-Residual
  Residual-Control   Outer-Iter.   Inner-Iter.     Column Row Layer    Maximum-Head-Change  Column Row Layer    Maximum-Flux-Residual          L2-NORM 
          0                 1           2             1    2     1      -0.9329354821E-02       1    3    1        -0.1008307603E-02      0.1520145931E-01
          0                 2           2             1    1     1       0.8911056874E-03       1    3    1         0.1008287121E-03      0.1473784093E-02
          0                 3           1             1    1     1      -0.7724055337E-04       1    3    1        -0.9074695594E-05      0.1362405832E-03
          0                 4           1             1    1     1       0.6001438541E-05       1    3    1         0.7268826643E-06      0.1135733903E-04
          0                 5           1             1    1     1      -0.4117933729E-06       1    4    1         0.6326837010E-07      0.8261062844E-06

    ------------------------------------------------
       NWT REQUIRED            5 OUTER ITERATIONS 
       AND A TOTAL OF          7 INNER ITERATIONS.
    ------------------------------------------------

 NO OUTPUT CONTROL FOR STRESS PERIOD   47   TIME STEP    8
 
 WELLS WITH REDUCED PUMPING FOR STRESS PERIOD    47 TIME STEP     8
   LAY   ROW   COL         APPL.Q          ACT.Q        GW-HEAD       CELL-BOT
     1     3    50  -0.105991E+01  -0.303595E+00   0.395836E-03   0.000000E+00
     1     5    55  -0.105991E+01  -0.233831E+00   0.337052E-03   0.000000E+00
 
 
 SOLVING FOR HEAD 
                                                   Max.-Head-Change                         Max.-Flux-Residual
  Residual-Control   Outer-Iter.   Inner-Iter.     Column Row Layer    Maximum-Head-Change  Column Row Layer    Maximum-Flux-Residual          L2-NORM 
          0                 1           2             1    1     1      -0.1027421276E-01       1    3    1        -0.1004866197E-02      0.1522612366E-01
          0                 2           2             1    1     1       0.9788361176E-03       1    3    1         0.1004845474E-03      0.1476824562E-02
          0                 3           1             1    1     1      -0.8459608183E-04       1    3    1        -0.9043731744E-05      0.1366701500E-03
          0                 4           1             1    1     1       0.6554506461E-05       1    4    1        -0.7291530508E-06      0.1142435112E-04
          0                 5           1             1    1     1      -0.4486214608E-06       1    4    1         0.6561940680E-07      0.8338977425E-06

    ------------------------------------------------
       NWT REQUIRED            5 OUTER ITERATIONS 
       AND A TOTAL OF          7 INNER ITERATIONS.
    ------------------------------------------------

 NO OUTPUT CONTROL FOR STRESS PERIOD   47   TIME STEP    9
 
 WELLS WITH REDUCED PUMPING FOR STRESS PERIOD    47 TIME STEP     9
   LAY   ROW   COL         APPL.Q          ACT.Q        GW-HEAD       CELL-BOT
     1     3    50  -0.105996E+01  -0.303517E+00   0.395765E-03   0.000000E+00
     1     5    55  -0.105996E+01  -0.233780E+00   0.337000E-03   0.000000E+00
 
 
 SOLVING FOR HEAD 
                                                   Max.-Head-Change                         Max.-Flux-Residual
  Residual-Control   Outer-Iter.   Inner-Iter.     Column Row Layer    Maximum-Head-Change  Column Row Layer    Maximum-Flux-Residual          L2-NORM 
          0                 1           2             1    1     1      -0.1130569156E-01       1    3    1        -0.1002536101E-02      0.1525597812E-01
          0                 2           2             1    1     1       0.1073849726E-02       1    3    1         0.1002514975E-03      0.1479250041E-02
          0                 3           1             1    1     1      -0.9251654871E-04       1    3    1        -0.9022770275E-05      0.1370167467E-03
          0                 4           1             1    1     1       0.7146183905E-05       1    4    1        -0.7483697111E-06      0.1148493856E-04
          0                 5           1             1    1     1      -0.4877520342E-06       1    4    1         0.6789403528E-07      0.8413764601E-06

    ------------------------------------------------
       NWT REQUIRED            5 OUTER ITERATIONS 
       AND A TOTAL OF          7 INNER ITERATIONS.
    ------------------------------------------------

 NO OUTPUT CONTROL FOR STRESS PERIOD   47   TIME STEP   10
 
 WELLS WITH REDUCED PUMPING FOR STRESS PERIOD    47 TIME STEP    10
   LAY   ROW   COL         APPL.Q          ACT.Q        GW-HEAD       CELL-BOT
     1     3    50  -0.105991E+01  -0.303431E+00   0.395709E-03   0.000000E+00
     1     5    55  -0.105991E+01  -0.233724E+00   0.336963E-03   0.000000E+00
 
 
 SOLVING FOR HEAD 
                                                   Max.-Head-Change                         Max.-Flux-Residual
  Residual-Control   Outer-Iter.   Inner-Iter.     Column Row Layer    Maximum-Head-Change  Column Row Layer    Maximum-Flux-Residual          L2-NORM 
          0                 1           2             1    1     1      -0.1243332785E-01       1    3    1        -0.1001172162E-02      0.1528120130E-01
          0                 2           2             1    1     1       0.1177289362E-02       1    3    1         0.1001149977E-03      0.1482144596E-02
          0                 3           1             1    1     1      -0.1010950055E-03       1    3    1        -0.9010500392E-05      0.1374265774E-03
          0                 4           1             1    1     1       0.7783038707E-05       1    4    1        -0.7668700448E-06      0.1155059099E-04
          0                 5           1             1    1     1      -0.5295829330E-06       1    4    1         0.7011930592E-07      0.8492743740E-06

    ------------------------------------------------
       NWT REQUIRED            5 OUTER ITERATIONS 
       AND A TOTAL OF          7 INNER ITERATIONS.
    ------------------------------------------------

 NO OUTPUT CONTROL FOR STRESS PERIOD   47   TIME STEP   11
 
 WELLS WITH REDUCED PUMPING FOR STRESS PERIOD    47 TIME STEP    11
   LAY   ROW   COL         APPL.Q          ACT.Q        GW-HEAD       CELL-BOT
     1     3    50  -0.106003E+01  -0.303338E+00   0.395610E-03   0.000000E+00
     1     5    55  -0.106003E+01  -0.233663E+00   0.336890E-03   0.000000E+00
 
 
 SOLVING FOR HEAD 
                                                   Max.-Head-Change                         Max.-Flux-Residual
  Residual-Control   Outer-Iter.   Inner-Iter.     Column Row Layer    Maximum-Head-Change  Column Row Layer    Maximum-Flux-Residual          L2-NORM 
          0                 1           2             1    1     1      -0.1366941266E-01       1    3    1        -0.1000313031E-02      0.1530880088E-01
          0                 2           2             1    1     1       0.1290261200E-02       1    3    1         0.1000289282E-03      0.1484539295E-02
          0                 3           2             1    1     1      -0.1104208511E-03       1    3    1        -0.9002771169E-05      0.1377584709E-03
          0                 4           1             1    1     1       0.8472565115E-05       1    4    1        -0.7847378676E-06      0.1161157052E-04
          0                 5           1             1    1     1      -0.5745580420E-06       1    4    1         0.7229782995E-07      0.8569062500E-06

    ------------------------------------------------
       NWT REQUIRED            5 OUTER ITERATIONS 
       AND A TOTAL OF          8 INNER ITERATIONS.
    ------------------------------------------------

 NO OUTPUT CONTROL FOR STRESS PERIOD   47   TIME STEP   12
 
 WELLS WITH REDUCED PUMPING FOR STRESS PERIOD    47 TIME STEP    12
   LAY   ROW   COL         APPL.Q          ACT.Q        GW-HEAD       CELL-BOT
     1     3    50  -0.106005E+01  -0.303235E+00   0.395526E-03   0.000000E+00
     1     5    55  -0.106005E+01  -0.233597E+00   0.336831E-03   0.000000E+00
 
 
 SOLVING FOR HEAD 
                                                   Max.-Head-Change                         Max.-Flux-Residual
  Residual-Control   Outer-Iter.   Inner-Iter.     Column Row Layer    Maximum-Head-Change  Column Row Layer    Maximum-Flux-Residual          L2-NORM 
          0                 1           2             1    1     1      -0.1502624290E-01       1    3    1        -0.9996798057E-03      0.1533652383E-01
          0                 2           2             1    1     1       0.1413858027E-02       1    3    1         0.9996541329E-04      0.1487217611E-02
          0                 3           2             1    1     1      -0.1205778445E-03       1    3    1        -0.8997073778E-05      0.1381185409E-03
          0                 4           1             1    1     1       0.9218472391E-05       1    4    1        -0.8017984001E-06      0.1167263435E-04
          0                 5           1             1    1     1      -0.6228659569E-06       1    4    1         0.7439818361E-07      0.8645530140E-06

    ------------------------------------------------
       NWT REQUIRED            5 OUTER ITERATIONS 
       AND A TOTAL OF          8 INNER ITERATIONS.
    ------------------------------------------------

 NO OUTPUT CONTROL FOR STRESS PERIOD   47   TIME STEP   13
 
 WELLS WITH REDUCED PUMPING FOR STRESS PERIOD    47 TIME STEP    13
   LAY   ROW   COL         APPL.Q          ACT.Q        GW-HEAD       CELL-BOT
     1     3    50  -0.106005E+01  -0.303123E+00   0.395440E-03   0.000000E+00
     1     5    55  -0.106005E+01  -0.233524E+00   0.336771E-03   0.000000E+00
 
 
 SOLVING FOR HEAD 
                                                   Max.-Head-Change                         Max.-Flux-Residual
  Residual-Control   Outer-Iter.   Inner-Iter.     Column Row Layer    Maximum-Head-Change  Column Row Layer    Maximum-Flux-Residual          L2-NORM 
          0                 1           2             1    1     1      -0.1651659651E-01       1    3    1        -0.9991315818E-03      0.1536707663E-01
          0                 2           2             1    1     1       0.1549222914E-02       1    3    1         0.9991037138E-04      0.1489783008E-02
          0                 3           2             1    1     1      -0.1316563457E-03       1    3    1        -0.8992140859E-05      0.1383915615E-03
          0                 4           1             1    1     1       0.1002765214E-04       1    4    1        -0.8180880862E-06      0.1172138708E-04
          0                 5           1             1    1     1      -0.6748846074E-06       1    4    1         0.7642221789E-07      0.8711596739E-06

    ------------------------------------------------
       NWT REQUIRED            5 OUTER ITERATIONS 
       AND A TOTAL OF          8 INNER ITERATIONS.
    ------------------------------------------------

 NO OUTPUT CONTROL FOR STRESS PERIOD   47   TIME STEP   14
 
 WELLS WITH REDUCED PUMPING FOR STRESS PERIOD    47 TIME STEP    14
   LAY   ROW   COL         APPL.Q          ACT.Q        GW-HEAD       CELL-BOT
     1     3    50  -0.106002E+01  -0.303000E+00   0.395352E-03   0.000000E+00
     1     5    55  -0.106002E+01  -0.233445E+00   0.336712E-03   0.000000E+00
 
 
 SOLVING FOR HEAD 
                                                   Max.-Head-Change                         Max.-Flux-Residual
  Residual-Control   Outer-Iter.   Inner-Iter.     Column Row Layer    Maximum-Head-Change  Column Row Layer    Maximum-Flux-Residual          L2-NORM 
          0                 1           2             5    4     1      -0.1846094957E-01       1    6    1        -0.9986117133E-03      0.1545067145E-01
          0                 2           2             3    1     1       0.1707098427E-02       1    2    1         0.9986064950E-04      0.1492529963E-02
          0                 3           2             3    1     1      -0.1445593348E-03       1    2    1        -0.8987616821E-05      0.1384190438E-03
          0                 4           1             2    1     1       0.1096487943E-04       1    4    1        -0.7984780872E-06      0.1174305903E-04
          0                 5           1             1    1     1      -0.7344144377E-06       1    4    1         0.7616278452E-07      0.8759101458E-06

    ------------------------------------------------
       NWT REQUIRED            5 OUTER ITERATIONS 
       AND A TOTAL OF          8 INNER ITERATIONS.
    ------------------------------------------------

 NO OUTPUT CONTROL FOR STRESS PERIOD   47   TIME STEP   15
 
 WELLS WITH REDUCED PUMPING FOR STRESS PERIOD    47 TIME STEP    15
   LAY   ROW   COL         APPL.Q          ACT.Q        GW-HEAD       CELL-BOT
     1     3    50  -0.106002E+01  -0.302866E+00   0.395248E-03   0.000000E+00
     1     5    55  -0.106002E+01  -0.233359E+00   0.336640E-03   0.000000E+00
 
 
 SOLVING FOR HEAD 
                                                   Max.-Head-Change                         Max.-Flux-Residual
  Residual-Control   Outer-Iter.   Inner-Iter.     Column Row Layer    Maximum-Head-Change  Column Row Layer    Maximum-Flux-Residual          L2-NORM 
          0                 1           2             1    4     1      -0.2032675365E-01       5    3    1        -0.1015214393E-02      0.1552522787E-01
          0                 2           2             1    1     1       0.1884864473E-02       5    3    1         0.1015173460E-03      0.1501884805E-02
          0                 3           2             2    1     1      -0.1590667359E-03       5    5    1        -0.9136830725E-05      0.1394586058E-03
          0                 4           1             3    1     1       0.1202000652E-04       5    4    1        -0.8251165085E-06      0.1186001926E-04
          0                 5           1             4    1     1      -0.8015045973E-06       5    4    1         0.7886622555E-07      0.8874488786E-06

    ------------------------------------------------
       NWT REQUIRED            5 OUTER ITERATIONS 
       AND A TOTAL OF          8 INNER ITERATIONS.
    ------------------------------------------------

 NO OUTPUT CONTROL FOR STRESS PERIOD   47   TIME STEP   16
 
 WELLS WITH REDUCED PUMPING FOR STRESS PERIOD    47 TIME STEP    16
   LAY   ROW   COL         APPL.Q          ACT.Q        GW-HEAD       CELL-BOT
     1     3    50  -0.106002E+01  -0.302718E+00   0.395135E-03   0.000000E+00
     1     5    55  -0.106002E+01  -0.233264E+00   0.336562E-03   0.000000E+00
 
 
 SOLVING FOR HEAD 
                                                   Max.-Head-Change                         Max.-Flux-Residual
  Residual-Control   Outer-Iter.   Inner-Iter.     Column Row Layer    Maximum-Head-Change  Column Row Layer    Maximum-Flux-Residual          L2-NORM 
          0                 1           2             1    1     1      -0.2229627982E-01       1    3    1        -0.1020440484E-02      0.1557839870E-01
          0                 2           2             1    1     1       0.2075457825E-02       1    3    1         0.1020395156E-03      0.1508525309E-02
          0                 3           2             1    1     1      -0.1746865702E-03       1    5    1        -0.9183855925E-05      0.1402164288E-03
          0                 4           1             1    1     1       0.1315514491E-04       1    4    1        -0.8467813224E-06      0.1195134286E-04
          0                 5           1             1    1     1      -0.8735448160E-06       2    4    1         0.8133414298E-07      0.8968794175E-06

    ------------------------------------------------
       NWT REQUIRED            5 OUTER ITERATIONS 
       AND A TOTAL OF          8 INNER ITERATIONS.
    ------------------------------------------------

 NO OUTPUT CONTROL FOR STRESS PERIOD   47   TIME STEP   17
 
 WELLS WITH REDUCED PUMPING FOR STRESS PERIOD    47 TIME STEP    17
   LAY   ROW   COL         APPL.Q          ACT.Q        GW-HEAD       CELL-BOT
     1     3    50  -0.106005E+01  -0.302557E+00   0.395005E-03   0.000000E+00
     1     5    55  -0.106005E+01  -0.233161E+00   0.336473E-03   0.000000E+00
 
 
 SOLVING FOR HEAD 
                                                   Max.-Head-Change                         Max.-Flux-Residual
  Residual-Control   Outer-Iter.   Inner-Iter.     Column Row Layer    Maximum-Head-Change  Column Row Layer    Maximum-Flux-Residual          L2-NORM 
          0                 1           2             1    1     1      -0.2453295933E-01       1    3    1        -0.1016872573E-02      0.1562288121E-01
          0                 2           2             1    1     1       0.2277648170E-02       1    3    1         0.1016828686E-03      0.1513124244E-02
          0                 3           2             1    1     1      -0.1910885294E-03       1    3    1        -0.9151782191E-05      0.1407152043E-03
          0                 4           1             1    1     1       0.1433597405E-04       1    4    1        -0.8619645087E-06      0.1201800993E-04
          0                 5           1             1    1     1      -0.9473382070E-06       2    4    1         0.8307516097E-07      0.9042984669E-06

    ------------------------------------------------
       NWT REQUIRED            5 OUTER ITERATIONS 
       AND A TOTAL OF          8 INNER ITERATIONS.
    ------------------------------------------------

 NO OUTPUT CONTROL FOR STRESS PERIOD   47   TIME STEP   18
 
 WELLS WITH REDUCED PUMPING FOR STRESS PERIOD    47 TIME STEP    18
   LAY   ROW   COL         APPL.Q          ACT.Q        GW-HEAD       CELL-BOT
     1     3    50  -0.106003E+01  -0.302380E+00   0.394871E-03   0.000000E+00
     1     5    55  -0.106003E+01  -0.233048E+00   0.336382E-03   0.000000E+00
 
 
 SOLVING FOR HEAD 
                                                   Max.-Head-Change                         Max.-Flux-Residual
  Residual-Control   Outer-Iter.   Inner-Iter.     Column Row Layer    Maximum-Head-Change  Column Row Layer    Maximum-Flux-Residual          L2-NORM 
          0                 1           2             1    1     1      -0.2696786900E-01       1    3    1        -0.1014886745E-02      0.1566177265E-01
          0                 2           2             1    1     1       0.2496975426E-02       1    3    1         0.1014842092E-03      0.1517168752E-02
          0                 3           2             1    1     1      -0.2087981393E-03       1    3    1        -0.9133933446E-05      0.1411653594E-03
          0                 4           1             1    1     1       0.1560296514E-04       1    4    1        -0.8739569104E-06      0.1208037721E-04
          0                 5           1             1    1     1      -0.1025532871E-05       2    4    1         0.8462933465E-07      0.9111765521E-06
          0                 6           1             1    1     1       0.5847222115E-07       2    4    1        -0.6304748723E-08      0.5886012510E-07

    ------------------------------------------------
       NWT REQUIRED            6 OUTER ITERATIONS 
       AND A TOTAL OF          9 INNER ITERATIONS.
    ------------------------------------------------

 NO OUTPUT CONTROL FOR STRESS PERIOD   47   TIME STEP   19
 
 WELLS WITH REDUCED PUMPING FOR STRESS PERIOD    47 TIME STEP    19
   LAY   ROW   COL         APPL.Q          ACT.Q        GW-HEAD       CELL-BOT
     1     3    50  -0.105998E+01  -0.302186E+00   0.394734E-03   0.000000E+00
     1     5    55  -0.105998E+01  -0.232925E+00   0.336290E-03   0.000000E+00
 
 
 SOLVING FOR HEAD 
                                                   Max.-Head-Change                         Max.-Flux-Residual
  Residual-Control   Outer-Iter.   Inner-Iter.     Column Row Layer    Maximum-Head-Change  Column Row Layer    Maximum-Flux-Residual          L2-NORM 
          0                 1           2             1    1     1      -0.2963547846E-01       1    5    1        -0.1013726548E-02      0.1569797767E-01
          0                 2           2             1    1     1       0.2736759889E-02       1    5    1         0.1013678953E-03      0.1520760136E-02
          0                 3           2             1    1     1      -0.2281015094E-03       1    5    1        -0.9123500842E-05      0.1415688878E-03
          0                 4           1             1    1     1       0.1697768775E-04       1    4    1        -0.8849362487E-06      0.1213808882E-04
          0                 5           1             1    1     1      -0.1109342691E-05       2    4    1         0.8608470381E-07      0.9173877756E-06
          0                 6           1             1    1     1       0.6285690104E-07       2    4    1        -0.6439531575E-08      0.5941783719E-07

    ------------------------------------------------
       NWT REQUIRED            6 OUTER ITERATIONS 
       AND A TOTAL OF          9 INNER ITERATIONS.
    ------------------------------------------------

 NO OUTPUT CONTROL FOR STRESS PERIOD   47   TIME STEP   20
 
 WELLS WITH REDUCED PUMPING FOR STRESS PERIOD    47 TIME STEP    20
   LAY   ROW   COL         APPL.Q          ACT.Q        GW-HEAD       CELL-BOT
     1     3    50  -0.105997E+01  -0.301968E+00   0.394568E-03   0.000000E+00
     1     5    55  -0.105997E+01  -0.232787E+00   0.336178E-03   0.000000E+00
 
 
 SOLVING FOR HEAD 
                                                   Max.-Head-Change                         Max.-Flux-Residual
  Residual-Control   Outer-Iter.   Inner-Iter.     Column Row Layer    Maximum-Head-Change  Column Row Layer    Maximum-Flux-Residual          L2-NORM 
          0                 1           2             3    1     1      -0.3261592356E-01       1    5    1        -0.1012777745E-02      0.1575755432E-01
          0                 2           2             2    1     1       0.3010573634E-02       1    2    1         0.1012734047E-03      0.1523910924E-02
          0                 3           2             3    1     1      -0.2504790338E-03       1    5    1        -0.9115021415E-05      0.1415783940E-03
          0                 4           1             3    1     1       0.1858693252E-04       1    4    1        -0.8880315221E-06      0.1213978708E-04
          0                 5           1             3    1     1      -0.1206315229E-05       1    4    1         0.8700842713E-07      0.9182506301E-06
          0                 6           1             4    1     1       0.6777432907E-07       1    4    1        -0.6524906837E-08      0.5960655438E-07

    ------------------------------------------------
       NWT REQUIRED            6 OUTER ITERATIONS 
       AND A TOTAL OF          9 INNER ITERATIONS.
    ------------------------------------------------

 NO OUTPUT CONTROL FOR STRESS PERIOD   47   TIME STEP   21
 
 WELLS WITH REDUCED PUMPING FOR STRESS PERIOD    47 TIME STEP    21
   LAY   ROW   COL         APPL.Q          ACT.Q        GW-HEAD       CELL-BOT
     1     3    50  -0.106000E+01  -0.301723E+00   0.394372E-03   0.000000E+00
     1     5    55  -0.106000E+01  -0.232632E+00   0.336043E-03   0.000000E+00
 
 
 SOLVING FOR HEAD 
                                                   Max.-Head-Change                         Max.-Flux-Residual
  Residual-Control   Outer-Iter.   Inner-Iter.     Column Row Layer    Maximum-Head-Change  Column Row Layer    Maximum-Flux-Residual          L2-NORM 
          0                 1           2             1    4     1      -0.3648744183E-01       4    3    1        -0.1016124540E-02      0.1585471898E-01
          0                 2           2             1    1     1       0.3334577319E-02       4    3    1         0.1016147496E-03      0.1530291454E-02
          0                 3           2             1    1     1      -0.2764356007E-03       4    3    1        -0.9145994145E-05      0.1419952074E-03
          0                 4           1             1    1     1       0.2042023234E-04       6    4    1        -0.8458651486E-06      0.1218575338E-04
          0                 5           1             1    1     1      -0.1315743987E-05       4    4    1         0.8476726165E-07      0.9224293202E-06
          0                 6           1             1    1     1       0.7338371730E-07       4    4    1        -0.6473387160E-08      0.5998437377E-07

    ------------------------------------------------
       NWT REQUIRED            6 OUTER ITERATIONS 
       AND A TOTAL OF          9 INNER ITERATIONS.
    ------------------------------------------------

 NO OUTPUT CONTROL FOR STRESS PERIOD   47   TIME STEP   22
 
 WELLS WITH REDUCED PUMPING FOR STRESS PERIOD    47 TIME STEP    22
   LAY   ROW   COL         APPL.Q          ACT.Q        GW-HEAD       CELL-BOT
     1     3    50  -0.105999E+01  -0.301447E+00   0.394160E-03   0.000000E+00
     1     5    55  -0.105999E+01  -0.232451E+00   0.335895E-03   0.000000E+00
 
 
 SOLVING FOR HEAD 
                                                   Max.-Head-Change                         Max.-Flux-Residual
  Residual-Control   Outer-Iter.   Inner-Iter.     Column Row Layer    Maximum-Head-Change  Column Row Layer    Maximum-Flux-Residual          L2-NORM 
          0                 1           2             1    1     1      -0.3995326156E-01       1    5    1        -0.1031794315E-02      0.1592708547E-01
          0                 2           2             1    1     1       0.3671544286E-02       1    5    1         0.1031717916E-03      0.1540549529E-02
          0                 3           2             1    1     1      -0.3038045138E-03       1    5    1        -0.9286004659E-05      0.1431336884E-03
          0                 4           1             1    1     1       0.2238072514E-04       1    4    1        -0.8894635819E-06      0.1230298746E-04
          0                 5           1             1    1     1      -0.1432159661E-05       2    4    1         0.8845327670E-07      0.9311672952E-06
          0                 6           1             1    1     1       0.7928015029E-07       2    4    1        -0.6723627877E-08      0.6058172453E-07

    ------------------------------------------------
       NWT REQUIRED            6 OUTER ITERATIONS 
       AND A TOTAL OF          9 INNER ITERATIONS.
    ------------------------------------------------

 NO OUTPUT CONTROL FOR STRESS PERIOD   47   TIME STEP   23
 
 WELLS WITH REDUCED PUMPING FOR STRESS PERIOD    47 TIME STEP    23
   LAY   ROW   COL         APPL.Q          ACT.Q        GW-HEAD       CELL-BOT
     1     3    50  -0.106002E+01  -0.301107E+00   0.393892E-03   0.000000E+00
     1     5    55  -0.106002E+01  -0.232221E+00   0.335700E-03   0.000000E+00
 
 
 SOLVING FOR HEAD 
                                                   Max.-Head-Change                         Max.-Flux-Residual
  Residual-Control   Outer-Iter.   Inner-Iter.     Column Row Layer    Maximum-Head-Change  Column Row Layer    Maximum-Flux-Residual          L2-NORM 
          0                 1           2             1    1     1      -0.4391959053E-01       1    5    1        -0.1027955493E-02      0.1597230603E-01
          0                 2           2             1    1     1       0.4027993126E-02       1    3    1         0.1027883756E-03      0.1545874348E-02
          0                 3           2             1    1     1      -0.3324268563E-03       1    5    1        -0.9251539018E-05      0.1436947164E-03
          0                 4           1             1    1     1       0.2440060219E-04       1    4    1        -0.8999675032E-06      0.1236746976E-04
          0                 5           1             1    1     1      -0.1547261300E-05       2    4    1         0.8964571663E-07      0.9352367959E-06
          0                 6           1             1    1     1       0.8482016328E-07       2    4    1        -0.6821849752E-08      0.6083853780E-07

    ------------------------------------------------
       NWT REQUIRED            6 OUTER ITERATIONS 
       AND A TOTAL OF          9 INNER ITERATIONS.
    ------------------------------------------------

 NO OUTPUT CONTROL FOR STRESS PERIOD   47   TIME STEP   24
 
 WELLS WITH REDUCED PUMPING FOR STRESS PERIOD    47 TIME STEP    24
   LAY   ROW   COL         APPL.Q          ACT.Q        GW-HEAD       CELL-BOT
     1     3    50  -0.106000E+01  -0.300719E+00   0.393597E-03   0.000000E+00
     1     5    55  -0.106000E+01  -0.231960E+00   0.335489E-03   0.000000E+00
 
 
 SOLVING FOR HEAD 
                                                   Max.-Head-Change                         Max.-Flux-Residual
  Residual-Control   Outer-Iter.   Inner-Iter.     Column Row Layer    Maximum-Head-Change  Column Row Layer    Maximum-Flux-Residual          L2-NORM 
          0                 1           2             1    1     1      -0.4824739922E-01       1    5    1        -0.1025998378E-02      0.1600929730E-01
          0                 2           2             1    1     1       0.4416092369E-02       1    3    1         0.1025923892E-03      0.1549797618E-02
          0                 3           2             1    1     1      -0.3635013180E-03       1    5    1        -0.9233954712E-05      0.1440849029E-03
          0                 4           1             1    1     1       0.2658176950E-04       1    4    1        -0.9070982454E-06      0.1241478861E-04
          0                 5           1             1    1     1      -0.1667358003E-05       2    4    1         0.9060510209E-07      0.9370382737E-06
          0                 6           1             1    1     1       0.9035547160E-07       2    4    1        -0.6900583216E-08      0.6089365568E-07

    ------------------------------------------------
       NWT REQUIRED            6 OUTER ITERATIONS 
       AND A TOTAL OF          9 INNER ITERATIONS.
    ------------------------------------------------

 NO OUTPUT CONTROL FOR STRESS PERIOD   47   TIME STEP   25
 
 WELLS WITH REDUCED PUMPING FOR STRESS PERIOD    47 TIME STEP    25
   LAY   ROW   COL         APPL.Q          ACT.Q        GW-HEAD       CELL-BOT
     1     3    50  -0.106001E+01  -0.300267E+00   0.393244E-03   0.000000E+00
     1     5    55  -0.106001E+01  -0.231645E+00   0.335225E-03   0.000000E+00
 
 
 SOLVING FOR HEAD 
                                                   Max.-Head-Change                         Max.-Flux-Residual
  Residual-Control   Outer-Iter.   Inner-Iter.     Column Row Layer    Maximum-Head-Change  Column Row Layer    Maximum-Flux-Residual          L2-NORM 
          0                 1           3             1    1     1      -0.5299226291E-01       1    5    1        -0.1024548266E-02      0.1603809240E-01
          0                 2           2             1    1     1       0.4841339149E-02       1    2    1         0.1024474403E-03      0.1552927761E-02
          0                 3           2             1    1     1      -0.3975009691E-03       1    5    1        -0.9220911993E-05      0.1444012484E-03
          0                 4           1             1    1     1       0.2895995332E-04       1    4    1        -0.9133127925E-06      0.1245538631E-04
          0                 5           1             1    1     1      -0.1794456890E-05       2    4    1         0.9147292523E-07      0.9373504049E-06
          0                 6           1             1    1     1       0.9600207902E-07       2    4    1        -0.6969543165E-08      0.6079844418E-07

    ------------------------------------------------
       NWT REQUIRED            6 OUTER ITERATIONS 
       AND A TOTAL OF         10 INNER ITERATIONS.
    ------------------------------------------------

 NO OUTPUT CONTROL FOR STRESS PERIOD   47   TIME STEP   26
 
 WELLS WITH REDUCED PUMPING FOR STRESS PERIOD    47 TIME STEP    26
   LAY   ROW   COL         APPL.Q          ACT.Q        GW-HEAD       CELL-BOT
     1     3    50  -0.106001E+01  -0.299782E+00   0.392870E-03   0.000000E+00
     1     5    55  -0.106001E+01  -0.231303E+00   0.334943E-03   0.000000E+00
 
 
 SOLVING FOR HEAD 
                                                   Max.-Head-Change                         Max.-Flux-Residual
  Residual-Control   Outer-Iter.   Inner-Iter.     Column Row Layer    Maximum-Head-Change  Column Row Layer    Maximum-Flux-Residual          L2-NORM 
          0                 1           3             1    1     1      -0.5819751166E-01       1    7    1        -0.1023142174E-02      0.1605782863E-01
          0                 2           2             1    1     1       0.5307439295E-02       1    7    1         0.1023077602E-03      0.1555507031E-02
          0                 3           2             1    1     1      -0.4347238778E-03       1    7    1        -0.9208320501E-05      0.1446803343E-03
          0                 4           1             1    1     1       0.3155180078E-04       1    4    1        -0.9189325461E-06      0.1249180690E-04
          0                 5           1             1    1     1      -0.1924985450E-05       2    4    1         0.9224510578E-07      0.9362809322E-06
          0                 6           1             1    1     1       0.1013802214E-06       2    4    1        -0.7020441117E-08      0.6056623630E-07

    ------------------------------------------------
       NWT REQUIRED            6 OUTER ITERATIONS 
       AND A TOTAL OF         10 INNER ITERATIONS.
    ------------------------------------------------

 NO OUTPUT CONTROL FOR STRESS PERIOD   47   TIME STEP   27
 
 WELLS WITH REDUCED PUMPING FOR STRESS PERIOD    47 TIME STEP    27
   LAY   ROW   COL         APPL.Q          ACT.Q        GW-HEAD       CELL-BOT
     1     3    50  -0.106000E+01  -0.299236E+00   0.392449E-03   0.000000E+00
     1     5    55  -0.106000E+01  -0.230926E+00   0.334631E-03   0.000000E+00
 
 
 SOLVING FOR HEAD 
                                                   Max.-Head-Change                         Max.-Flux-Residual
  Residual-Control   Outer-Iter.   Inner-Iter.     Column Row Layer    Maximum-Head-Change  Column Row Layer    Maximum-Flux-Residual          L2-NORM 
          0                 1           3             1    1     1      -0.6390717195E-01       1    7    1        -0.1021642860E-02      0.1608384571E-01
          0                 2           2             1    1     1       0.5818428266E-02       1    7    1         0.1021570352E-03      0.1558204921E-02
          0                 3           2             1    1     1      -0.4754884187E-03       1    7    1        -0.9194828346E-05      0.1449463460E-03
          0                 4           1             1    1     1       0.3437734588E-04       1    4    1        -0.9239733743E-06      0.1252540120E-04
          0                 5           1             1    1     1      -0.2058027654E-05       2    4    1         0.9292987890E-07      0.9332708711E-06
          0                 6           1             1    1     1       0.1063702657E-06       2    4    1        -0.7056556228E-08      0.6013077309E-07

    ------------------------------------------------
       NWT REQUIRED            6 OUTER ITERATIONS 
       AND A TOTAL OF         10 INNER ITERATIONS.
    ------------------------------------------------

 NO OUTPUT CONTROL FOR STRESS PERIOD   47   TIME STEP   28
 
 WELLS WITH REDUCED PUMPING FOR STRESS PERIOD    47 TIME STEP    28
   LAY   ROW   COL         APPL.Q          ACT.Q        GW-HEAD       CELL-BOT
     1     3    50  -0.105998E+01  -0.298626E+00   0.391982E-03   0.000000E+00
     1     5    55  -0.105998E+01  -0.230498E+00   0.334280E-03   0.000000E+00
 
 
 SOLVING FOR HEAD 
                                                   Max.-Head-Change                         Max.-Flux-Residual
  Residual-Control   Outer-Iter.   Inner-Iter.     Column Row Layer    Maximum-Head-Change  Column Row Layer    Maximum-Flux-Residual          L2-NORM 
          0                 1           3             1    1     1      -0.7018717355E-01       1    7    1        -0.1020026189E-02      0.1607141940E-01
          0                 2           2             1    1     1       0.6383035729E-02       1    7    1         0.1019947362E-03      0.1558233310E-02
          0                 3           2             1    1     1      -0.5207136991E-03       1    7    1        -0.9180296995E-05      0.1450247397E-03
          0                 4           1             1    1     1       0.3751240778E-04       1    4    1        -0.9218435029E-06      0.1254447953E-04
          0                 5           1             1    1     1      -0.2194717684E-05       9    4    1         0.9314068272E-07      0.9275908953E-06
          0                 6           1             1    1     1       0.1109409967E-06       2    4    1        -0.7042775252E-08      0.5947371671E-07

    ------------------------------------------------
       NWT REQUIRED            6 OUTER ITERATIONS 
       AND A TOTAL OF         10 INNER ITERATIONS.
    ------------------------------------------------

 NO OUTPUT CONTROL FOR STRESS PERIOD   47   TIME STEP   29
 
 WELLS WITH REDUCED PUMPING FOR STRESS PERIOD    47 TIME STEP    29
   LAY   ROW   COL         APPL.Q          ACT.Q        GW-HEAD       CELL-BOT
     1     3    50  -0.106001E+01  -0.297931E+00   0.391437E-03   0.000000E+00
     1     5    55  -0.106001E+01  -0.230016E+00   0.333875E-03   0.000000E+00
 
 
 SOLVING FOR HEAD 
                                                   Max.-Head-Change                         Max.-Flux-Residual
  Residual-Control   Outer-Iter.   Inner-Iter.     Column Row Layer    Maximum-Head-Change  Column Row Layer    Maximum-Flux-Residual          L2-NORM 
          0                 1           3             1    1     1      -0.7711778958E-01       1    5    1        -0.1018557297E-02      0.1603975367E-01
          0                 2           2             1    1     1       0.7002978114E-02       1    5    1         0.1018453093E-03      0.1555822774E-02
          0                 3           2             1    1     1      -0.5700894834E-03       1    5    1        -0.9167088491E-05      0.1448805102E-03
          0                 4           1             1    1     1       0.4089871795E-04       1    4    1        -0.9236906546E-06      0.1254644558E-04
          0                 5           1             1    1     1      -0.2324504341E-05       9    4    1         0.9416318747E-07      0.9189733627E-06
          0                 6           1             1    1     1       0.1143852499E-06       2    4    1        -0.7039798078E-08      0.5859746496E-07

    ------------------------------------------------
       NWT REQUIRED            6 OUTER ITERATIONS 
       AND A TOTAL OF         10 INNER ITERATIONS.
    ------------------------------------------------

 NO OUTPUT CONTROL FOR STRESS PERIOD   47   TIME STEP   30
 
 WELLS WITH REDUCED PUMPING FOR STRESS PERIOD    47 TIME STEP    30
   LAY   ROW   COL         APPL.Q          ACT.Q        GW-HEAD       CELL-BOT
     1     3    50  -0.105980E+01  -0.297175E+00   0.390898E-03   0.000000E+00
     1     5    55  -0.105980E+01  -0.229475E+00   0.333464E-03   0.000000E+00
 



 STREAM LISTING     PERIOD     47   STEP       30

 LAYER ROW COL. STREAM  RCH.   FLOW INTO    STREAM     FLOW OUT OF   OVRLND.    DIRECT     STREAM      STREAM      STREAM     STREAM  STREAMBED   FLOW TO   CHNG. UNSAT. 
                SEG.NO.  NO.   STRM. RCH.    LOSS       STRM. RCH.   RUNOFF     PRECIP       ET         HEAD        DEPTH      WIDTH  CONDCTNC.   WAT. TAB.

   1    4    1     1     1    2.1000E+00  9.2186E-04   2.0991E+00  0.000E+00  0.000E+00  0.000E+00  1.40926E+02  1.076E+00  3.100E+00  5.848E-04  5.090E-04  4.128E-04
   1    4    2     1     2    2.0991E+00  9.2159E-04   2.0982E+00  0.000E+00  0.000E+00  0.000E+00  1.40626E+02  1.076E+00  3.100E+00  5.848E-04  5.086E-04  4.130E-04
   1    4    3     1     3    2.0982E+00  9.2133E-04   2.0972E+00  0.000E+00  0.000E+00  0.000E+00  1.40326E+02  1.076E+00  3.100E+00  5.847E-04  5.082E-04  4.132E-04
   1    4    4     1     4    2.0972E+00  9.2106E-04   2.0963E+00  0.000E+00  0.000E+00  0.000E+00  1.40026E+02  1.076E+00  3.099E+00  5.846E-04  5.078E-04  4.133E-04
   1    4    5     1     5    2.0963E+00  9.2079E-04   2.0954E+00  0.000E+00  0.000E+00  0.000E+00  1.39725E+02  1.075E+00  3.099E+00  5.845E-04  5.074E-04  4.134E-04
   1    4    6     1     6    2.0954E+00  9.2052E-04   2.0945E+00  0.000E+00  0.000E+00  0.000E+00  1.39425E+02  1.075E+00  3.099E+00  5.844E-04  5.071E-04  4.134E-04
   1    4    7     1     7    2.0945E+00  9.2026E-04   2.0936E+00  0.000E+00  0.000E+00  0.000E+00  1.39125E+02  1.075E+00  3.098E+00  5.844E-04  5.068E-04  4.135E-04
   1    4    8     1     8    2.0936E+00  9.1999E-04   2.0926E+00  0.000E+00  0.000E+00  0.000E+00  1.38825E+02  1.075E+00  3.098E+00  5.843E-04  5.065E-04  4.135E-04
   1    4    9     1     9    2.0926E+00  9.1972E-04   2.0917E+00  0.000E+00  0.000E+00  0.000E+00  1.38524E+02  1.074E+00  3.098E+00  5.842E-04  5.062E-04  4.135E-04
   1    4   10     1    10    2.0917E+00  9.1946E-04   2.0908E+00  0.000E+00  0.000E+00  0.000E+00  1.38224E+02  1.074E+00  3.098E+00  5.841E-04  5.069E-04  4.126E-04
   1    4   11     1    11    2.0908E+00  9.1919E-04   2.0899E+00  0.000E+00  0.000E+00  0.000E+00  1.37924E+02  1.074E+00  3.097E+00  5.840E-04  5.077E-04  4.115E-04
   1    4   12     1    12    2.0899E+00  9.1892E-04   2.0890E+00  0.000E+00  0.000E+00  0.000E+00  1.37624E+02  1.074E+00  3.097E+00  5.840E-04  5.088E-04  4.101E-04
   1    4   13     1    13    2.0890E+00  9.1866E-04   2.0880E+00  0.000E+00  0.000E+00  0.000E+00  1.37323E+02  1.073E+00  3.097E+00  5.839E-04  5.101E-04  4.086E-04
   1    4   14     1    14    2.0880E+00  9.1839E-04   2.0871E+00  0.000E+00  0.000E+00  0.000E+00  1.37023E+02  1.073E+00  3.096E+00  5.838E-04  5.115E-04  4.069E-04
   1    4   15     1    15    2.0871E+00  9.1813E-04   2.0862E+00  0.000E+00  0.000E+00  0.000E+00  1.36723E+02  1.073E+00  3.096E+00  5.837E-04  5.130E-04  4.052E-04
   1    4   16     1    16    2.0862E+00  9.1786E-04   2.0853E+00  0.000E+00  0.000E+00  0.000E+00  1.36423E+02  1.073E+00  3.096E+00  5.836E-04  5.128E-04  4.050E-04
   1    4   17     1    17    2.0853E+00  9.1759E-04   2.0844E+00  0.000E+00  0.000E+00  0.000E+00  1.36122E+02  1.072E+00  3.096E+00  5.836E-04  5.127E-04  4.049E-04
   1    4   18     1    18    2.0844E+00  9.1733E-04   2.0834E+00  0.000E+00  0.000E+00  0.000E+00  1.35822E+02  1.072E+00  3.095E+00  5.835E-04  5.127E-04  4.048E-04
   1    4   19     1    19    2.0834E+00  9.1706E-04   2.0825E+00  0.000E+00  0.000E+00  0.000E+00  1.35522E+02  1.072E+00  3.095E+00  5.834E-04  5.126E-04  4.046E-04
   1    4   20     1    20    2.0825E+00  9.1679E-04   2.0816E+00  0.000E+00  0.000E+00  0.000E+00  1.35222E+02  1.072E+00  3.095E+00  5.833E-04  5.126E-04  4.044E-04
   1    4   21     1    21    2.0816E+00  9.1653E-04   2.0807E+00  0.000E+00  0.000E+00  0.000E+00  1.34921E+02  1.071E+00  3.094E+00  5.833E-04  5.126E-04  4.042E-04
   1    4   22     1    22    2.0807E+00  9.1626E-04   2.0798E+00  0.000E+00  0.000E+00  0.000E+00  1.34621E+02  1.071E+00  3.094E+00  5.832E-04  5.126E-04  4.039E-04
   1    4   23     1    23    2.0798E+00  9.1600E-04   2.0789E+00  0.000E+00  0.000E+00  0.000E+00  1.34321E+02  1.071E+00  3.094E+00  5.831E-04  5.127E-04  4.036E-04
   1    4   24     1    24    2.0789E+00  9.1573E-04   2.0779E+00  0.000E+00  0.000E+00  0.000E+00  1.34021E+02  1.071E+00  3.094E+00  5.830E-04  5.128E-04  4.032E-04
   1    4   25     1    25    2.0779E+00  9.1547E-04   2.0770E+00  0.000E+00  0.000E+00  0.000E+00  1.33720E+02  1.070E+00  3.093E+00  5.829E-04  5.129E-04  4.028E-04
   1    4   26     1    26    2.0770E+00  9.1520E-04   2.0761E+00  0.000E+00  0.000E+00  0.000E+00  1.33420E+02  1.070E+00  3.093E+00  5.829E-04  5.130E-04  4.024E-04
   1    4   27     1    27    2.0761E+00  9.1493E-04   2.0752E+00  0.000E+00  0.000E+00  0.000E+00  1.33120E+02  1.070E+00  3.093E+00  5.828E-04  5.132E-04  4.020E-04
   1    4   28     1    28    2.0752E+00  9.1467E-04   2.0743E+00  0.000E+00  0.000E+00  0.000E+00  1.32820E+02  1.070E+00  3.092E+00  5.827E-04  5.134E-04  4.015E-04
   1    4   29     1    29    2.0743E+00  9.1440E-04   2.0734E+00  0.000E+00  0.000E+00  0.000E+00  1.32519E+02  1.069E+00  3.092E+00  5.826E-04  5.137E-04  4.010E-04
   1    4   30     1    30    2.0734E+00  9.1414E-04   2.0725E+00  0.000E+00  0.000E+00  0.000E+00  1.32219E+02  1.069E+00  3.092E+00  5.825E-04  5.139E-04  4.004E-04
   1    4   31     1    31    2.0725E+00  9.1387E-04   2.0715E+00  0.000E+00  0.000E+00  0.000E+00  1.31919E+02  1.069E+00  3.091E+00  5.825E-04  5.142E-04  3.999E-04
   1    4   32     1    32    2.0715E+00  9.1361E-04   2.0706E+00  0.000E+00  0.000E+00  0.000E+00  1.31619E+02  1.069E+00  3.091E+00  5.824E-04  5.146E-04  3.993E-04
   1    4   33     1    33    2.0706E+00  9.1334E-04   2.0697E+00  0.000E+00  0.000E+00  0.000E+00  1.31319E+02  1.069E+00  3.091E+00  5.823E-04  5.150E-04  3.986E-04
   1    4   34     1    34    2.0697E+00  9.1308E-04   2.0688E+00  0.000E+00  0.000E+00  0.000E+00  1.31018E+02  1.068E+00  3.091E+00  5.822E-04  5.154E-04  3.979E-04
   1    4   35     1    35    2.0688E+00  9.1281E-04   2.0679E+00  0.000E+00  0.000E+00  0.000E+00  1.30718E+02  1.068E+00  3.090E+00  5.821E-04  5.158E-04  3.972E-04
   1    4   36     1    36    2.0679E+00  9.1255E-04   2.0670E+00  0.000E+00  0.000E+00  0.000E+00  1.30418E+02  1.068E+00  3.090E+00  5.821E-04  5.163E-04  3.965E-04
   1    4   37     1    37    2.0670E+00  9.1228E-04   2.0661E+00  0.000E+00  0.000E+00  0.000E+00  1.30118E+02  1.068E+00  3.090E+00  5.820E-04  5.167E-04  3.958E-04
   1    4   38     1    38    2.0661E+00  9.1202E-04   2.0652E+00  0.000E+00  0.000E+00  0.000E+00  1.29817E+02  1.067E+00  3.089E+00  5.819E-04  5.172E-04  3.951E-04
   1    4   39     1    39    2.0652E+00  9.1175E-04   2.0642E+00  0.000E+00  0.000E+00  0.000E+00  1.29517E+02  1.067E+00  3.089E+00  5.818E-04  5.449E-04  3.671E-04
   1    4   40     1    40    2.0642E+00  9.1149E-04   2.0633E+00  0.000E+00  0.000E+00  0.000E+00  1.29217E+02  1.067E+00  3.089E+00  5.817E-04  5.995E-04  3.122E-04
   1    4   41     1    41    2.0633E+00  9.1122E-04   2.0624E+00  0.000E+00  0.000E+00  0.000E+00  1.28917E+02  1.067E+00  3.089E+00  5.817E-04  6.309E-04  2.806E-04
   1    4   42     1    42    2.0624E+00  9.1096E-04   2.0615E+00  0.000E+00  0.000E+00  0.000E+00  1.28616E+02  1.066E+00  3.088E+00  5.816E-04  6.319E-04  2.793E-04
   1    4   43     1    43    2.0615E+00  9.1069E-04   2.0606E+00  0.000E+00  0.000E+00  0.000E+00  1.28316E+02  1.066E+00  3.088E+00  5.815E-04  6.328E-04  2.781E-04
   1    4   44     1    44    2.0606E+00  9.1043E-04   2.0597E+00  0.000E+00  0.000E+00  0.000E+00  1.28016E+02  1.066E+00  3.088E+00  5.814E-04  6.739E-04  2.368E-04
   1    4   45     1    45    2.0597E+00  9.1017E-04   2.0588E+00  0.000E+00  0.000E+00  0.000E+00  1.27716E+02  1.066E+00  3.087E+00  5.814E-04  7.216E-04  1.888E-04
   1    4   46     1    46    2.0588E+00  9.0990E-04   2.0579E+00  0.000E+00  0.000E+00  0.000E+00  1.27415E+02  1.065E+00  3.087E+00  5.813E-04  7.948E-04  1.153E-04
   1    4   47     1    47    2.0579E+00  9.0964E-04   2.0570E+00  0.000E+00  0.000E+00  0.000E+00  1.27115E+02  1.065E+00  3.087E+00  5.812E-04  7.971E-04  1.128E-04
   1    4   48     1    48    2.0570E+00  9.0937E-04   2.0561E+00  0.000E+00  0.000E+00  0.000E+00  1.26815E+02  1.065E+00  3.087E+00  5.811E-04  8.923E-04  1.731E-05
   1    4   49     1    49    2.0561E+00  9.0911E-04   2.0551E+00  0.000E+00  0.000E+00  0.000E+00  1.26515E+02  1.065E+00  3.086E+00  5.810E-04  8.633E-04  4.600E-05
   1    4   50     1    50    2.0551E+00  9.0884E-04   2.0542E+00  0.000E+00  0.000E+00  0.000E+00  1.26214E+02  1.064E+00  3.086E+00  5.810E-04  9.150E-04 -5.938E-06
   1    4   51     1    51    2.0542E+00  9.0858E-04   2.0533E+00  0.000E+00  0.000E+00  0.000E+00  1.25914E+02  1.064E+00  3.086E+00  5.809E-04  8.769E-04  3.185E-05
   1    4   52     1    52    2.0533E+00  9.0832E-04   2.0524E+00  0.000E+00  0.000E+00  0.000E+00  1.25614E+02  1.064E+00  3.085E+00  5.808E-04  8.641E-04  4.445E-05
   1    4   53     1    53    2.0524E+00  9.0805E-04   2.0515E+00  0.000E+00  0.000E+00  0.000E+00  1.25314E+02  1.064E+00  3.085E+00  5.807E-04  8.626E-04  4.570E-05
   1    4   54     1    54    2.0515E+00  9.0779E-04   2.0506E+00  0.000E+00  0.000E+00  0.000E+00  1.25013E+02  1.063E+00  3.085E+00  5.806E-04  8.717E-04  3.634E-05
   1    4   55     1    55    2.0506E+00  9.0752E-04   2.0497E+00  0.000E+00  0.000E+00  0.000E+00  1.24713E+02  1.063E+00  3.085E+00  5.806E-04  9.030E-04  4.785E-06
   1    4   56     1    56    2.0497E+00  9.0726E-04   2.0488E+00  0.000E+00  0.000E+00  0.000E+00  1.24413E+02  1.063E+00  3.084E+00  5.805E-04  8.631E-04  4.441E-05
   1    4   57     1    57    2.0488E+00  9.0700E-04   2.0479E+00  0.000E+00  0.000E+00  0.000E+00  1.24113E+02  1.063E+00  3.084E+00  5.804E-04  9.037E-04  3.471E-06
   1    4   58     1    58    2.0479E+00  9.0673E-04   2.0470E+00  0.000E+00  0.000E+00  0.000E+00  1.23812E+02  1.062E+00  3.084E+00  5.803E-04  7.974E-04  1.096E-04
   1    4   59     1    59    2.0470E+00  9.0647E-04   2.0461E+00  0.000E+00  0.000E+00  0.000E+00  1.23512E+02  1.062E+00  3.083E+00  5.802E-04  7.957E-04  1.110E-04
   1    4   60     1    60    2.0461E+00  9.0621E-04   2.0452E+00  0.000E+00  0.000E+00  0.000E+00  1.23212E+02  1.062E+00  3.083E+00  5.802E-04  7.369E-04  1.696E-04
   1    4   61     1    61    2.0452E+00  9.0594E-04   2.0443E+00  0.000E+00  0.000E+00  0.000E+00  1.22912E+02  1.062E+00  3.083E+00  5.801E-04  6.749E-04  2.312E-04
   1    4   62     1    62    2.0443E+00  9.0568E-04   2.0433E+00  0.000E+00  0.000E+00  0.000E+00  1.22611E+02  1.061E+00  3.082E+00  5.800E-04  6.739E-04  2.320E-04
   1    4   63     1    63    2.0433E+00  9.0542E-04   2.0424E+00  0.000E+00  0.000E+00  0.000E+00  1.22311E+02  1.061E+00  3.082E+00  5.799E-04  6.727E-04  2.329E-04
   1    4   64     1    64    2.0424E+00  9.0515E-04   2.0415E+00  0.000E+00  0.000E+00  0.000E+00  1.22011E+02  1.061E+00  3.082E+00  5.799E-04  6.356E-04  2.698E-04
   1    4   65     1    65    2.0415E+00  9.0489E-04   2.0406E+00  0.000E+00  0.000E+00  0.000E+00  1.21711E+02  1.061E+00  3.082E+00  5.798E-04  5.910E-04  3.141E-04
   1    4   66     1    66    2.0406E+00  9.0463E-04   2.0397E+00  0.000E+00  0.000E+00  0.000E+00  1.21411E+02  1.061E+00  3.081E+00  5.797E-04  5.289E-04  3.760E-04
   1    4   67     1    67    2.0397E+00  9.0436E-04   2.0388E+00  0.000E+00  0.000E+00  0.000E+00  1.21110E+02  1.060E+00  3.081E+00  5.796E-04  5.196E-04  3.850E-04
   1    4   68     1    68    2.0388E+00  9.0410E-04   2.0379E+00  0.000E+00  0.000E+00  0.000E+00  1.20810E+02  1.060E+00  3.081E+00  5.795E-04  5.192E-04  3.851E-04
   1    4   69     1    69    2.0379E+00  9.0384E-04   2.0370E+00  0.000E+00  0.000E+00  0.000E+00  1.20510E+02  1.060E+00  3.080E+00  5.795E-04  5.186E-04  3.854E-04
   1    4   70     1    70    2.0370E+00  9.0357E-04   2.0361E+00  0.000E+00  0.000E+00  0.000E+00  1.20210E+02  1.060E+00  3.080E+00  5.794E-04  5.181E-04  3.857E-04
   1    4   71     1    71    2.0361E+00  9.0331E-04   2.0352E+00  0.000E+00  0.000E+00  0.000E+00  1.19909E+02  1.059E+00  3.080E+00  5.793E-04  5.175E-04  3.860E-04
   1    4   72     1    72    2.0352E+00  9.0305E-04   2.0343E+00  0.000E+00  0.000E+00  0.000E+00  1.19609E+02  1.059E+00  3.080E+00  5.792E-04  5.171E-04  3.862E-04
   1    4   73     1    73    2.0343E+00  9.0279E-04   2.0334E+00  0.000E+00  0.000E+00  0.000E+00  1.19309E+02  1.059E+00  3.079E+00  5.791E-04  5.166E-04  3.864E-04
   1    4   74     1    74    2.0334E+00  9.0252E-04   2.0325E+00  0.000E+00  0.000E+00  0.000E+00  1.19009E+02  1.059E+00  3.079E+00  5.791E-04  5.162E-04  3.865E-04
   1    4   75     1    75    2.0325E+00  9.0226E-04   2.0316E+00  0.000E+00  0.000E+00  0.000E+00  1.18708E+02  1.058E+00  3.079E+00  5.790E-04  5.158E-04  3.866E-04
   1    4   76     1    76    2.0316E+00  9.0200E-04   2.0307E+00  0.000E+00  0.000E+00  0.000E+00  1.18408E+02  1.058E+00  3.078E+00  5.789E-04  5.155E-04  3.867E-04
   1    4   77     1    77    2.0307E+00  9.0174E-04   2.0298E+00  0.000E+00  0.000E+00  0.000E+00  1.18108E+02  1.058E+00  3.078E+00  5.788E-04  5.152E-04  3.867E-04
   1    4   78     1    78    2.0298E+00  9.0147E-04   2.0289E+00  0.000E+00  0.000E+00  0.000E+00  1.17808E+02  1.058E+00  3.078E+00  5.787E-04  5.149E-04  3.868E-04
   1    4   79     1    79    2.0289E+00  9.0121E-04   2.0280E+00  0.000E+00  0.000E+00  0.000E+00  1.17507E+02  1.057E+00  3.078E+00  5.787E-04  5.147E-04  3.867E-04
   1    4   80     1    80    2.0280E+00  9.0095E-04   2.0271E+00  0.000E+00  0.000E+00  0.000E+00  1.17207E+02  1.057E+00  3.077E+00  5.786E-04  5.145E-04  3.866E-04
   1    4   81     1    81    2.0271E+00  9.0069E-04   2.0262E+00  0.000E+00  0.000E+00  0.000E+00  1.16907E+02  1.057E+00  3.077E+00  5.785E-04  5.144E-04  3.865E-04
   1    4   82     1    82    2.0262E+00  9.0042E-04   2.0253E+00  0.000E+00  0.000E+00  0.000E+00  1.16607E+02  1.057E+00  3.077E+00  5.784E-04  5.143E-04  3.863E-04
   1    4   83     1    83    2.0253E+00  9.0016E-04   2.0244E+00  0.000E+00  0.000E+00  0.000E+00  1.16306E+02  1.056E+00  3.076E+00  5.784E-04  5.144E-04  3.859E-04
   1    4   84     1    84    2.0244E+00  8.9990E-04   2.0235E+00  0.000E+00  0.000E+00  0.000E+00  1.16006E+02  1.056E+00  3.076E+00  5.783E-04  5.144E-04  3.857E-04
   1    4   85     1    85    2.0235E+00  8.9964E-04   2.0226E+00  0.000E+00  0.000E+00  0.000E+00  1.15706E+02  1.056E+00  3.076E+00  5.782E-04  5.868E-04  3.131E-04
   1    4   86     1    86    2.0226E+00  8.9938E-04   2.0217E+00  0.000E+00  0.000E+00  0.000E+00  1.15406E+02  1.056E+00  3.076E+00  5.781E-04  6.886E-04  2.109E-04
   1    4   87     1    87    2.0217E+00  8.9912E-04   2.0208E+00  0.000E+00  0.000E+00  0.000E+00  1.15105E+02  1.055E+00  3.075E+00  5.780E-04  7.968E-04  1.025E-04
   1    4   88     1    88    2.0208E+00  8.9885E-04   2.0199E+00  0.000E+00  0.000E+00  0.000E+00  1.14805E+02  1.055E+00  3.075E+00  5.780E-04  9.025E-04 -3.462E-06
   1    4   89     1    89    2.0199E+00  8.9859E-04   2.0190E+00  0.000E+00  0.000E+00  0.000E+00  1.14505E+02  1.055E+00  3.075E+00  5.779E-04  9.521E-04 -5.347E-05
   1    4   90     1    90    2.0190E+00  8.9833E-04   2.0181E+00  0.000E+00  0.000E+00  0.000E+00  1.14205E+02  1.055E+00  3.074E+00  5.778E-04  9.523E-04 -5.401E-05
   1    4   91     1    91    2.0181E+00  8.9807E-04   2.0172E+00  0.000E+00  0.000E+00  0.000E+00  1.13904E+02  1.054E+00  3.074E+00  5.777E-04  9.504E-04 -5.231E-05
   1    4   92     1    92    2.0172E+00  8.9781E-04   2.0163E+00  0.000E+00  0.000E+00  0.000E+00  1.13604E+02  1.054E+00  3.074E+00  5.776E-04  9.481E-04 -5.028E-05
   1    4   93     1    93    2.0163E+00  8.9755E-04   2.0154E+00  0.000E+00  0.000E+00  0.000E+00  1.13304E+02  1.054E+00  3.074E+00  5.776E-04  9.484E-04 -5.084E-05
   1    4   94     1    94    2.0154E+00  8.9728E-04   2.0145E+00  0.000E+00  0.000E+00  0.000E+00  1.13004E+02  1.054E+00  3.073E+00  5.775E-04  9.492E-04 -5.193E-05
   1    4   95     1    95    2.0145E+00  8.9702E-04   2.0136E+00  0.000E+00  0.000E+00  0.000E+00  1.12704E+02  1.054E+00  3.073E+00  5.774E-04  9.501E-04 -5.304E-05
   1    4   96     1    96    2.0136E+00  8.9676E-04   2.0127E+00  0.000E+00  0.000E+00  0.000E+00  1.12403E+02  1.053E+00  3.073E+00  5.773E-04  9.509E-04 -5.409E-05
   1    4   97     1    97    2.0127E+00  8.9650E-04   2.0118E+00  0.000E+00  0.000E+00  0.000E+00  1.12103E+02  1.053E+00  3.072E+00  5.773E-04  9.510E-04 -5.450E-05
   1    4   98     1    98    2.0118E+00  8.9624E-04   2.0109E+00  0.000E+00  0.000E+00  0.000E+00  1.11803E+02  1.053E+00  3.072E+00  5.772E-04  9.475E-04 -5.130E-05
   1    4   99     1    99    2.0109E+00  8.9598E-04   2.0100E+00  0.000E+00  0.000E+00  0.000E+00  1.11503E+02  1.053E+00  3.072E+00  5.771E-04  9.456E-04 -4.967E-05
   1    4  100     1   100    2.0100E+00  8.9572E-04   2.0091E+00  0.000E+00  0.000E+00  0.000E+00  1.11202E+02  1.052E+00  3.072E+00  5.770E-04  9.460E-04 -5.028E-05



1
  VOLUMETRIC BUDGET FOR UNSATURATED ZONE BENEATH STREAMS AT END OF TIME STEP    30 STRESS PERIOD  47
  ------------------------------------------------------------------------------------------------

    CUMULATIVE VOLUMES             L**3    RATES FOR THIS TIME STEP         L**3/T
    ------------------                     ------------------------


          STREAM LOSS =     35198680.0000            STREAM LOSS =        9.0874E-02
    CHANGE IN STORAGE =      1349176.0000      CHANGE IN STORAGE =        2.6837E-02
       RECHARGE TO GW =     33857456.0000         RECHARGE TO GW =        6.4053E-02

             TOTAL IN =     35198680.0000               TOTAL IN =        9.0874E-02

            TOTAL OUT =     35206632.0000              TOTAL OUT =        9.0889E-02

             IN - OUT =        -7952.0000               IN - OUT =       -1.5259E-05

  PERCENT DISCREPANCY =           -0.01      PERCENT DISCREPANCY =            -0.00



1
  VOLUMETRIC BUDGET FOR ENTIRE MODEL AT END OF TIME STEP   30, STRESS PERIOD  47
  ------------------------------------------------------------------------------

     CUMULATIVE VOLUMES      L**3       RATES FOR THIS TIME STEP      L**3/T
     ------------------                 ------------------------

           IN:                                      IN:
           ---                                      ---
             STORAGE     =   116526560.0000               STORAGE     =           0.3653
       CONSTANT HEAD     =           0.0000         CONSTANT HEAD     =           0.0000
               WELLS     =           0.0000                 WELLS     =           0.0000
     HEAD DEP BOUNDS     =     3476393.0000       HEAD DEP BOUNDS     =       9.7259E-02
      STREAM LEAKAGE     =    33857172.0000        STREAM LEAKAGE     =       6.4053E-02

                TOTAL IN =   153860128.0000                  TOTAL IN =           0.5267

          OUT:                                     OUT:
          ----                                     ----
             STORAGE     =     3105399.2500               STORAGE     =           0.0000
       CONSTANT HEAD     =           0.0000         CONSTANT HEAD     =           0.0000
               WELLS     =   134395392.0000                 WELLS     =           0.5267
     HEAD DEP BOUNDS     =    16359348.0000       HEAD DEP BOUNDS     =           0.0000
      STREAM LEAKAGE     =           0.0000        STREAM LEAKAGE     =           0.0000

               TOTAL OUT =   153860128.0000                 TOTAL OUT =           0.5267

                IN - OUT =           0.0000                  IN - OUT =      -5.9605E-08

     PERCENT DISCREPANCY =           0.00         PERCENT DISCREPANCY =          -0.00






         TIME SUMMARY AT END OF TIME STEP   30 IN STRESS PERIOD   47
                    SECONDS     MINUTES      HOURS       DAYS        YEARS
                    -----------------------------------------------------------
   TIME STEP LENGTH 2.49961E+05  4166.0      69.434      2.8931     7.92080E-03
 STRESS PERIOD TIME 2.59200E+06  43200.      720.00      30.000     8.21355E-02
         TOTAL TIME 1.21824E+08 2.03040E+06  33840.      1410.0      3.8604    
1
1
                            STRESS PERIOD NO.   48, LENGTH =   2592000.    
                            -----------------------------------------------

                              NUMBER OF TIME STEPS =    30

                               MULTIPLIER FOR DELT =     1.100

                            INITIAL TIME STEP SIZE =   15757.40    

 REUSING NON-PARAMETER WELLS FROM LAST STRESS PERIOD

      1 WELL 

 REUSING NON-PARAMETER GHB CELLS FROM LAST STRESS PERIOD

      7 GHB CELLS



 CLASSIFICATION & COUNT OF STREAM SEGMENTS BASED ON SOURCE OF INFLOW:

                HEADWATER     DIVERSION     RECEIVES TRIBUTARY FLOW
                ---------     ---------     -----------------------
                     1              0               0



                    INPUT DATA FOR EACH STREAM SEGMENT
 ---------------------------------------------------------------------------------------------

 SEGMENT    SEG.     INFLOW   OVERLAND   STREAM    STREAM   ICALC  OUTFLOW  DIVERSION PRIORITY
    NO.    LENGTH     RATE     RUNOFF      ET       PPT.    METH.  TO SEG.  FROM SEG.    NO.

      1  2.000E+04 4.200E+00 0.000E+00 0.000E+00 0.000E+00    2        0        0        0


         STREAMBED PROPERTIES AND STREAM DIMENSIONS

 SEGMENT     BED HYD. COND.      BED THICKNESS     ELEV.-TOP OF BED     WIDTH OF STREAM     DEPTH OF STREAM    STREAM ROUGHNESS
    No.     UPPER     LOWER     UPPER     LOWER     UPPER     LOWER     UPPER     LOWER     UPPER     LOWER   CHANNEL      BANK

     1  3.500E-07 3.500E-07                                                                                 3.000E-02 4.000E-02

  EIGHT POINT CROSS-SECTION DATA FOR SEGMENTS WITH ICALC = 2
    X VALUES X VALUES START FROM LEFT SIDE LOOKING DOWNSTREAM

     SEGMENT NO.        X1        X2        X3        X4        X5        X6        X7        X8
            1      0.000E+00 2.000E+00 4.000E+00 6.000E+00 8.000E+00 1.000E+01 1.200E+01 1.400E+01

    Z VALUES ARE RELATIVE TO STREAMBED ELEVATION

     SEGMENT NO.          Z1        Z2        Z3        Z4        Z5        Z6        Z7        Z8
            1      6.000E+00 4.500E+00 3.500E+00 0.000E+00 3.000E-01 3.500E+00 4.500E+00 6.000E+00



 
 SOLVING FOR HEAD 
                                                   Max.-Head-Change                         Max.-Flux-Residual
  Residual-Control   Outer-Iter.   Inner-Iter.     Column Row Layer    Maximum-Head-Change  Column Row Layer    Maximum-Flux-Residual          L2-NORM 
          0                 1           2             1    1     1      -0.4890971341E-02      50    3    1         0.1232938669E+00      0.1565911964E+00
          0                 2           2             1    1     1       0.4767586659E-03      50    3    1        -0.2166282705E-01      0.2942538995E-01
          0                 3           1             1    1     1      -0.4205201909E-04      50    3    1         0.1951728339E-02      0.2548940141E-02
          0                 4           1             1    1     1       0.3314631273E-05      50    3    1        -0.1566263528E-03      0.2052206569E-03
          0                 5           1             1    1     1      -0.2299693306E-06      50    3    1         0.1100900479E-04      0.1442103746E-04

    ------------------------------------------------
       NWT REQUIRED            5 OUTER ITERATIONS 
       AND A TOTAL OF          7 INNER ITERATIONS.
    ------------------------------------------------

 NO OUTPUT CONTROL FOR STRESS PERIOD   48   TIME STEP    1
 
 WELLS WITH REDUCED PUMPING FOR STRESS PERIOD    48 TIME STEP     1
   LAY   ROW   COL         APPL.Q          ACT.Q        GW-HEAD       CELL-BOT
     1     3    50  -0.620102E+00  -0.297102E+00   0.544404E-03   0.000000E+00
     1     5    55  -0.620102E+00  -0.229423E+00   0.457789E-03   0.000000E+00
 
 
 SOLVING FOR HEAD 
                                                   Max.-Head-Change                         Max.-Flux-Residual
  Residual-Control   Outer-Iter.   Inner-Iter.     Column Row Layer    Maximum-Head-Change  Column Row Layer    Maximum-Flux-Residual          L2-NORM 
          0                 1           2             1    1     1      -0.5378545463E-02       1    3    1        -0.1017570452E-02      0.1596077415E-01
          0                 2           2             1    1     1       0.5232031500E-03       1    3    1         0.1017561504E-03      0.1549178284E-02
          0                 3           1             1    1     1      -0.4606784678E-04       1    3    1        -0.9158105382E-05      0.1416020836E-03
          0                 4           1             1    1     1       0.3626162567E-05       1    5    1         0.7335642103E-06      0.1159504976E-04
          0                 5           1             1    1     1      -0.2513321991E-06       1    5    1        -0.5156885408E-07      0.8285164940E-06

    ------------------------------------------------
       NWT REQUIRED            5 OUTER ITERATIONS 
       AND A TOTAL OF          7 INNER ITERATIONS.
    ------------------------------------------------

 NO OUTPUT CONTROL FOR STRESS PERIOD   48   TIME STEP    2
 
 WELLS WITH REDUCED PUMPING FOR STRESS PERIOD    48 TIME STEP     2
   LAY   ROW   COL         APPL.Q          ACT.Q        GW-HEAD       CELL-BOT
     1     3    50  -0.620102E+00  -0.297060E+00   0.544354E-03   0.000000E+00
     1     5    55  -0.620102E+00  -0.229393E+00   0.457752E-03   0.000000E+00
 
 
 SOLVING FOR HEAD 
                                                   Max.-Head-Change                         Max.-Flux-Residual
  Residual-Control   Outer-Iter.   Inner-Iter.     Column Row Layer    Maximum-Head-Change  Column Row Layer    Maximum-Flux-Residual          L2-NORM 
          0                 1           2             1    1     1      -0.5914515620E-02       1    3    1        -0.1017406360E-02      0.1595965903E-01
          0                 2           2             1    1     1       0.5740691594E-03       1    3    1         0.1017396473E-03      0.1548780975E-02
          0                 3           1             1    1     1      -0.5044926316E-04       1    3    1        -0.9156627318E-05      0.1416947268E-03
          0                 4           1             1    1     1       0.3964828761E-05       1    3    1         0.7334457699E-06      0.1162815116E-04
          0                 5           1             1    1     1      -0.2744827548E-06       1    3    1        -0.5156052296E-07      0.8329022994E-06

    ------------------------------------------------
       NWT REQUIRED            5 OUTER ITERATIONS 
       AND A TOTAL OF          7 INNER ITERATIONS.
    ------------------------------------------------

 NO OUTPUT CONTROL FOR STRESS PERIOD   48   TIME STEP    3
 
 WELLS WITH REDUCED PUMPING FOR STRESS PERIOD    48 TIME STEP     3
   LAY   ROW   COL         APPL.Q          ACT.Q        GW-HEAD       CELL-BOT
     1     3    50  -0.619920E+00  -0.297000E+00   0.544386E-03   0.000000E+00
     1     5    55  -0.619920E+00  -0.229351E+00   0.457783E-03   0.000000E+00
 
 
 SOLVING FOR HEAD 
                                                   Max.-Head-Change                         Max.-Flux-Residual
  Residual-Control   Outer-Iter.   Inner-Iter.     Column Row Layer    Maximum-Head-Change  Column Row Layer    Maximum-Flux-Residual          L2-NORM 
          0                 1           2             1    1     1      -0.6503672193E-02       1    3    1        -0.1017236931E-02      0.1596204598E-01
          0                 2           2             1    1     1       0.6297728152E-03       1    3    1         0.1017226027E-03      0.1548900847E-02
          0                 3           1             1    1     1      -0.5522825092E-04       1    3    1        -0.9155101317E-05      0.1418289750E-03
          0                 4           1             1    1     1       0.4332776665E-05       1    3    1         0.7333234784E-06      0.1166495056E-04
          0                 5           1             1    1     1      -0.2995455072E-06       1    4    1         0.5197385988E-07      0.8376867010E-06

    ------------------------------------------------
       NWT REQUIRED            5 OUTER ITERATIONS 
       AND A TOTAL OF          7 INNER ITERATIONS.
    ------------------------------------------------

 NO OUTPUT CONTROL FOR STRESS PERIOD   48   TIME STEP    4
 
 WELLS WITH REDUCED PUMPING FOR STRESS PERIOD    48 TIME STEP     4
   LAY   ROW   COL         APPL.Q          ACT.Q        GW-HEAD       CELL-BOT
     1     3    50  -0.620086E+00  -0.296934E+00   0.544211E-03   0.000000E+00
     1     5    55  -0.620086E+00  -0.229305E+00   0.457650E-03   0.000000E+00
 
 
 SOLVING FOR HEAD 
                                                   Max.-Head-Change                         Max.-Flux-Residual
  Residual-Control   Outer-Iter.   Inner-Iter.     Column Row Layer    Maximum-Head-Change  Column Row Layer    Maximum-Flux-Residual          L2-NORM 
          0                 1           2             1    1     1      -0.7151283781E-02       1    3    1        -0.1017061289E-02      0.1595511202E-01
          0                 2           2             1    1     1       0.6907713928E-03       1    3    1         0.1017049283E-03      0.1548402801E-02
          0                 3           1             1    1     1      -0.6043984560E-04       1    3    1        -0.9153519528E-05      0.1419210546E-03
          0                 4           1             1    1     1       0.4732343291E-05       1    3    1         0.7331967176E-06      0.1169985640E-04
          0                 5           1             1    1     1      -0.3266543708E-06       1    4    1         0.5429592420E-07      0.8425264194E-06

    ------------------------------------------------
       NWT REQUIRED            5 OUTER ITERATIONS 
       AND A TOTAL OF          7 INNER ITERATIONS.
    ------------------------------------------------

 NO OUTPUT CONTROL FOR STRESS PERIOD   48   TIME STEP    5
 
 WELLS WITH REDUCED PUMPING FOR STRESS PERIOD    48 TIME STEP     5
   LAY   ROW   COL         APPL.Q          ACT.Q        GW-HEAD       CELL-BOT
     1     3    50  -0.620043E+00  -0.296862E+00   0.544150E-03   0.000000E+00
     1     5    55  -0.620043E+00  -0.229255E+00   0.457608E-03   0.000000E+00
 
 
 SOLVING FOR HEAD 
                                                   Max.-Head-Change                         Max.-Flux-Residual
  Residual-Control   Outer-Iter.   Inner-Iter.     Column Row Layer    Maximum-Head-Change  Column Row Layer    Maximum-Flux-Residual          L2-NORM 
          0                 1           2             1    1     1      -0.7863141186E-02       1    2    1        -0.1016878498E-02      0.1594885000E-01
          0                 2           2             1    1     1       0.7575674685E-03       1    2    1         0.1016872976E-03      0.1548130313E-02
          0                 3           1             1    1     1      -0.6612247720E-04       1    2    1        -0.9151909145E-05      0.1420377527E-03
          0                 4           1             1    1     1       0.5166075956E-05       1    1    1         0.7330654572E-06      0.1173732600E-04
          0                 5           1             1    1     1      -0.3559535242E-06       1    4    1         0.5659784108E-07      0.8476785839E-06

    ------------------------------------------------
       NWT REQUIRED            5 OUTER ITERATIONS 
       AND A TOTAL OF          7 INNER ITERATIONS.
    ------------------------------------------------

 NO OUTPUT CONTROL FOR STRESS PERIOD   48   TIME STEP    6
 
 WELLS WITH REDUCED PUMPING FOR STRESS PERIOD    48 TIME STEP     6
   LAY   ROW   COL         APPL.Q          ACT.Q        GW-HEAD       CELL-BOT
     1     3    50  -0.619964E+00  -0.296785E+00   0.544102E-03   0.000000E+00
     1     5    55  -0.619964E+00  -0.229201E+00   0.457577E-03   0.000000E+00
 
 
 SOLVING FOR HEAD 
                                                   Max.-Head-Change                         Max.-Flux-Residual
  Residual-Control   Outer-Iter.   Inner-Iter.     Column Row Layer    Maximum-Head-Change  Column Row Layer    Maximum-Flux-Residual          L2-NORM 
          0                 1           2             1    1     1      -0.8645603781E-02       1    1    1        -0.1016688418E-02      0.1594459755E-01
          0                 2           2             1    1     1       0.8307132921E-03       1    1    1         0.1016684967E-03      0.1547944166E-02
          0                 3           1             1    1     1      -0.7231833644E-04       1    1    1        -0.9150202070E-05      0.1421465684E-03
          0                 4           1             1    1     1       0.5636757533E-05       1    1    1         0.7329309017E-06      0.1177381197E-04
          0                 5           1             1    1     1      -0.3875984348E-06       1    4    1         0.5887107690E-07      0.8528656119E-06

    ------------------------------------------------
       NWT REQUIRED            5 OUTER ITERATIONS 
       AND A TOTAL OF          7 INNER ITERATIONS.
    ------------------------------------------------

 NO OUTPUT CONTROL FOR STRESS PERIOD   48   TIME STEP    7
 
 WELLS WITH REDUCED PUMPING FOR STRESS PERIOD    48 TIME STEP     7
   LAY   ROW   COL         APPL.Q          ACT.Q        GW-HEAD       CELL-BOT
     1     3    50  -0.619929E+00  -0.296702E+00   0.544022E-03   0.000000E+00
     1     5    55  -0.619929E+00  -0.229142E+00   0.457522E-03   0.000000E+00
 
 
 SOLVING FOR HEAD 
                                                   Max.-Head-Change                         Max.-Flux-Residual
  Residual-Control   Outer-Iter.   Inner-Iter.     Column Row Layer    Maximum-Head-Change  Column Row Layer    Maximum-Flux-Residual          L2-NORM 
          0                 1           2             1    1     1      -0.9505656662E-02       1    1    1        -0.1016480134E-02      0.1593311798E-01
          0                 2           2             1    1     1       0.9108161821E-03       1    1    1         0.1016476003E-03      0.1546673466E-02
          0                 3           1             1    1     1      -0.7907383144E-04       1    1    1        -0.9148328402E-05      0.1421656262E-03
          0                 4           1             1    1     1       0.6147438710E-05       1    1    1         0.7327807356E-06      0.1180477663E-04
          0                 5           1             1    1     1      -0.4217581649E-06       1    4    1         0.6110733430E-07      0.8578509091E-06

    ------------------------------------------------
       NWT REQUIRED            5 OUTER ITERATIONS 
       AND A TOTAL OF          7 INNER ITERATIONS.
    ------------------------------------------------

 NO OUTPUT CONTROL FOR STRESS PERIOD   48   TIME STEP    8
 
 WELLS WITH REDUCED PUMPING FOR STRESS PERIOD    48 TIME STEP     8
   LAY   ROW   COL         APPL.Q          ACT.Q        GW-HEAD       CELL-BOT
     1     3    50  -0.619945E+00  -0.296611E+00   0.543903E-03   0.000000E+00
     1     5    55  -0.619945E+00  -0.229079E+00   0.457436E-03   0.000000E+00
 
 
 SOLVING FOR HEAD 
                                                   Max.-Head-Change                         Max.-Flux-Residual
  Residual-Control   Outer-Iter.   Inner-Iter.     Column Row Layer    Maximum-Head-Change  Column Row Layer    Maximum-Flux-Residual          L2-NORM 
          0                 1           2             1    1     1      -0.1045096833E-01       1    1    1        -0.1016249492E-02      0.1592891704E-01
          0                 2           2             1    1     1       0.9985439739E-03       1    1    1         0.1016244573E-03      0.1546525615E-02
          0                 3           1             1    1     1      -0.8644004992E-04       1    1    1        -0.9146253650E-05      0.1422721412E-03
          0                 4           1             1    1     1       0.6701469019E-05       1    1    1         0.7326144367E-06      0.1184140025E-04
          0                 5           1             1    1     1      -0.4586169242E-06       1    4    1         0.6329879376E-07      0.8632619076E-06

    ------------------------------------------------
       NWT REQUIRED            5 OUTER ITERATIONS 
       AND A TOTAL OF          7 INNER ITERATIONS.
    ------------------------------------------------

 NO OUTPUT CONTROL FOR STRESS PERIOD   48   TIME STEP    9
 
 WELLS WITH REDUCED PUMPING FOR STRESS PERIOD    48 TIME STEP     9
   LAY   ROW   COL         APPL.Q          ACT.Q        GW-HEAD       CELL-BOT
     1     3    50  -0.619974E+00  -0.296512E+00   0.543766E-03   0.000000E+00
     1     5    55  -0.619974E+00  -0.229011E+00   0.457339E-03   0.000000E+00
 
 
 SOLVING FOR HEAD 
                                                   Max.-Head-Change                         Max.-Flux-Residual
  Residual-Control   Outer-Iter.   Inner-Iter.     Column Row Layer    Maximum-Head-Change  Column Row Layer    Maximum-Flux-Residual          L2-NORM 
          0                 1           2             1    1     1      -0.1148996046E-01       1    1    1        -0.1015995220E-02      0.1591787503E-01
          0                 2           2             1    1     1       0.1094631590E-02       1    1    1         0.1015989389E-03      0.1544971017E-02
          0                 3           1             1    1     1      -0.9447331651E-04       1    1    1        -0.9143966349E-05      0.1422528601E-03
          0                 4           1             1    1     1       0.7302535117E-05       1    1    1         0.7324311060E-06      0.1186957959E-04
          0                 5           1             1    1     1      -0.4983763155E-06       1    4    1         0.6543793418E-07      0.8682588640E-06

    ------------------------------------------------
       NWT REQUIRED            5 OUTER ITERATIONS 
       AND A TOTAL OF          7 INNER ITERATIONS.
    ------------------------------------------------

 NO OUTPUT CONTROL FOR STRESS PERIOD   48   TIME STEP   10
 
 WELLS WITH REDUCED PUMPING FOR STRESS PERIOD    48 TIME STEP    10
   LAY   ROW   COL         APPL.Q          ACT.Q        GW-HEAD       CELL-BOT
     1     3    50  -0.619948E+00  -0.296404E+00   0.543651E-03   0.000000E+00
     1     5    55  -0.619948E+00  -0.228936E+00   0.457259E-03   0.000000E+00
 
 
 SOLVING FOR HEAD 
                                                   Max.-Head-Change                         Max.-Flux-Residual
  Residual-Control   Outer-Iter.   Inner-Iter.     Column Row Layer    Maximum-Head-Change  Column Row Layer    Maximum-Flux-Residual          L2-NORM 
          0                 1           2             1    1     1      -0.1263187036E-01       1    1    1        -0.1015715557E-02      0.1590874403E-01
          0                 2           2             1    1     1       0.1199886066E-02       1    1    1         0.1015708678E-03      0.1545057401E-02
          0                 3           1             1    1     1      -0.1032356146E-03       1    1    1        -0.9141450674E-05      0.1425513028E-03
          0                 4           1             1    1     1       0.7954687057E-05       7    4    1        -0.8143935517E-06      0.1193136578E-04
          0                 5           1             1    1     1      -0.5412570378E-06       7    4    1         0.7310191208E-07      0.8757620608E-06

    ------------------------------------------------
       NWT REQUIRED            5 OUTER ITERATIONS 
       AND A TOTAL OF          7 INNER ITERATIONS.
    ------------------------------------------------

 NO OUTPUT CONTROL FOR STRESS PERIOD   48   TIME STEP   11
 
 WELLS WITH REDUCED PUMPING FOR STRESS PERIOD    48 TIME STEP    11
   LAY   ROW   COL         APPL.Q          ACT.Q        GW-HEAD       CELL-BOT
     1     3    50  -0.620020E+00  -0.296286E+00   0.543467E-03   0.000000E+00
     1     5    55  -0.620020E+00  -0.228855E+00   0.457126E-03   0.000000E+00
 
 
 SOLVING FOR HEAD 
                                                   Max.-Head-Change                         Max.-Flux-Residual
  Residual-Control   Outer-Iter.   Inner-Iter.     Column Row Layer    Maximum-Head-Change  Column Row Layer    Maximum-Flux-Residual          L2-NORM 
          0                 1           2             1    1     1      -0.1383296325E-01       1    1    1        -0.1015407989E-02      0.1577080179E-01
          0                 2           2             1    1     1       0.1309263933E-02       1    1    1         0.1015392651E-03      0.1549581930E-02
          0                 3           2             1    1     1      -0.1122868880E-03       1    1    1        -0.9138625691E-05      0.1439933904E-03
          0                 4           1             1    1     1       0.8628834391E-05       6    4    1        -0.9428008134E-06      0.1209971637E-04
          0                 5           1             1    1     1      -0.5856946801E-06       6    4    1         0.8006259478E-07      0.8898658723E-06

    ------------------------------------------------
       NWT REQUIRED            5 OUTER ITERATIONS 
       AND A TOTAL OF          8 INNER ITERATIONS.
    ------------------------------------------------

 NO OUTPUT CONTROL FOR STRESS PERIOD   48   TIME STEP   12
 
 WELLS WITH REDUCED PUMPING FOR STRESS PERIOD    48 TIME STEP    12
   LAY   ROW   COL         APPL.Q          ACT.Q        GW-HEAD       CELL-BOT
     1     3    50  -0.620031E+00  -0.296157E+00   0.543305E-03   0.000000E+00
     1     5    55  -0.620031E+00  -0.228767E+00   0.457012E-03   0.000000E+00
 
 
 SOLVING FOR HEAD 
                                                   Max.-Head-Change                         Max.-Flux-Residual
  Residual-Control   Outer-Iter.   Inner-Iter.     Column Row Layer    Maximum-Head-Change  Column Row Layer    Maximum-Flux-Residual          L2-NORM 
          0                 1           2             1    1     1      -0.1466171505E-01       1    1    1        -0.1011192444E-02      0.1553963313E-01
          0                 2           2             1    1     1       0.1386821514E-02       1    1    1         0.1011113608E-03      0.1523591487E-02
          0                 3           2             1    1     1      -0.1189245306E-03       1    1    1        -0.9100173553E-05      0.1416985925E-03
          0                 4           1             1    1     1       0.9141902422E-05       1    4    1        -0.9708734794E-06      0.1194209834E-04
          0                 5           1             1    1     1      -0.6209077454E-06       1    4    1         0.8300365373E-07      0.8814947683E-06

    ------------------------------------------------
       NWT REQUIRED            5 OUTER ITERATIONS 
       AND A TOTAL OF          8 INNER ITERATIONS.
    ------------------------------------------------

 NO OUTPUT CONTROL FOR STRESS PERIOD   48   TIME STEP   13
 
 WELLS WITH REDUCED PUMPING FOR STRESS PERIOD    48 TIME STEP    13
   LAY   ROW   COL         APPL.Q          ACT.Q        GW-HEAD       CELL-BOT
     1     3    50  -0.620031E+00  -0.296017E+00   0.543137E-03   0.000000E+00
     1     5    55  -0.620031E+00  -0.228669E+00   0.456891E-03   0.000000E+00
 
 
 SOLVING FOR HEAD 
                                                   Max.-Head-Change                         Max.-Flux-Residual
  Residual-Control   Outer-Iter.   Inner-Iter.     Column Row Layer    Maximum-Head-Change  Column Row Layer    Maximum-Flux-Residual          L2-NORM 
          0                 1           2             1    1     1      -0.1573310019E-01       1    1    1        -0.9743982040E-03      0.1539249301E-01
          0                 2           2             1    1     1       0.1475605344E-02       1    1    1         0.9743403088E-04      0.1502538535E-02
          0                 3           2             1    1     1      -0.1254950253E-03       1    1    1        -0.8769211973E-05      0.1397268058E-03
          0                 4           1             1    1     1       0.9572311123E-05      18    4    1        -0.9322401393E-06      0.1181294528E-04
          0                 5           1             1    1     1      -0.6455337270E-06      18    4    1         0.7928759693E-07      0.8756909738E-06

    ------------------------------------------------
       NWT REQUIRED            5 OUTER ITERATIONS 
       AND A TOTAL OF          8 INNER ITERATIONS.
    ------------------------------------------------

 NO OUTPUT CONTROL FOR STRESS PERIOD   48   TIME STEP   14
 
 WELLS WITH REDUCED PUMPING FOR STRESS PERIOD    48 TIME STEP    14
   LAY   ROW   COL         APPL.Q          ACT.Q        GW-HEAD       CELL-BOT
     1     3    50  -0.620013E+00  -0.295865E+00   0.542964E-03   0.000000E+00
     1     5    55  -0.620013E+00  -0.228542E+00   0.456744E-03   0.000000E+00
 
 
 SOLVING FOR HEAD 
                                                   Max.-Head-Change                         Max.-Flux-Residual
  Residual-Control   Outer-Iter.   Inner-Iter.     Column Row Layer    Maximum-Head-Change  Column Row Layer    Maximum-Flux-Residual          L2-NORM 
          0                 1           2             2    1     1      -0.1712777077E-01       1    1    1        -0.9512514338E-03      0.1530014772E-01
          0                 2           2             2    1     1       0.1598670515E-02       1    1    1         0.9512179482E-04      0.1491905393E-02
          0                 3           2             2    1     1      -0.1352599790E-03       1    1    1        -0.8561104941E-05      0.1388892254E-03
          0                 4           1             2    1     1       0.1026249956E-04      20    4    1        -0.9068353215E-06      0.1177870232E-04
          0                 5           1             1    1     1      -0.6882254769E-06      20    4    1         0.7813513037E-07      0.8765202385E-06

    ------------------------------------------------
       NWT REQUIRED            5 OUTER ITERATIONS 
       AND A TOTAL OF          8 INNER ITERATIONS.
    ------------------------------------------------

 NO OUTPUT CONTROL FOR STRESS PERIOD   48   TIME STEP   15
 
 WELLS WITH REDUCED PUMPING FOR STRESS PERIOD    48 TIME STEP    15
   LAY   ROW   COL         APPL.Q          ACT.Q        GW-HEAD       CELL-BOT
     1     3    50  -0.620013E+00  -0.295659E+00   0.542716E-03   0.000000E+00
     1     5    55  -0.620013E+00  -0.228397E+00   0.456565E-03   0.000000E+00
 
 
 SOLVING FOR HEAD 
                                                   Max.-Head-Change                         Max.-Flux-Residual
  Residual-Control   Outer-Iter.   Inner-Iter.     Column Row Layer    Maximum-Head-Change  Column Row Layer    Maximum-Flux-Residual          L2-NORM 
          0                 1           2             2    1     1      -0.1876548193E-01       2    7    1        -0.9418250438E-03      0.1522118011E-01
          0                 2           2             3    1     1       0.1745167117E-02       2    1    1         0.9418033554E-04      0.1483549661E-02
          0                 3           2             3    1     1      -0.1470473586E-03       2    1    1        -0.8476380470E-05      0.1382876753E-03
          0                 4           1             3    1     1       0.1110711838E-04      22    4    1        -0.8977813177E-06      0.1176361037E-04
          0                 5           1             3    1     1      -0.7411506917E-06       2    4    1         0.7804863245E-07      0.8786192544E-06

    ------------------------------------------------
       NWT REQUIRED            5 OUTER ITERATIONS 
       AND A TOTAL OF          8 INNER ITERATIONS.
    ------------------------------------------------

 NO OUTPUT CONTROL FOR STRESS PERIOD   48   TIME STEP   16
 
 WELLS WITH REDUCED PUMPING FOR STRESS PERIOD    48 TIME STEP    16
   LAY   ROW   COL         APPL.Q          ACT.Q        GW-HEAD       CELL-BOT
     1     3    50  -0.620013E+00  -0.295456E+00   0.542471E-03   0.000000E+00
     1     5    55  -0.620013E+00  -0.228259E+00   0.456394E-03   0.000000E+00
 
 
 SOLVING FOR HEAD 
                                                   Max.-Head-Change                         Max.-Flux-Residual
  Residual-Control   Outer-Iter.   Inner-Iter.     Column Row Layer    Maximum-Head-Change  Column Row Layer    Maximum-Flux-Residual          L2-NORM 
          0                 1           2             2    1     1      -0.2060577627E-01       2    7    1        -0.9383655828E-03      0.1514771103E-01
          0                 2           2             2    1     1       0.1909987464E-02       2    1    1         0.9383467945E-04      0.1476335565E-02
          0                 3           2             3    1     1      -0.1603134496E-03       2    1    1        -0.8445287957E-05      0.1378034167E-03
          0                 4           1             3    1     1       0.1205678765E-04      24    4    1        -0.8955829944E-06      0.1175732232E-04
          0                 5           1             3    1     1      -0.8004258055E-06       2    4    1         0.7987841677E-07      0.8811830153E-06

    ------------------------------------------------
       NWT REQUIRED            5 OUTER ITERATIONS 
       AND A TOTAL OF          8 INNER ITERATIONS.
    ------------------------------------------------

 NO OUTPUT CONTROL FOR STRESS PERIOD   48   TIME STEP   17
 
 WELLS WITH REDUCED PUMPING FOR STRESS PERIOD    48 TIME STEP    17
   LAY   ROW   COL         APPL.Q          ACT.Q        GW-HEAD       CELL-BOT
     1     3    50  -0.620027E+00  -0.295243E+00   0.542207E-03   0.000000E+00
     1     5    55  -0.620027E+00  -0.228114E+00   0.456210E-03   0.000000E+00
 
 
 SOLVING FOR HEAD 
                                                   Max.-Head-Change                         Max.-Flux-Residual
  Residual-Control   Outer-Iter.   Inner-Iter.     Column Row Layer    Maximum-Head-Change  Column Row Layer    Maximum-Flux-Residual          L2-NORM 
          0                 1           2             2    1     1      -0.2265185879E-01       2    7    1        -0.9369796375E-03      0.1507737141E-01
          0                 2           2             2    1     1       0.2094022291E-02       2    1    1         0.9369613531E-04      0.1469351974E-02
          0                 3           2             2    1     1      -0.1751461931E-03       2    1    1        -0.8432838822E-05      0.1373058876E-03
          0                 4           1             3    1     1       0.1311720176E-04      26    4    1        -0.9022301111E-06      0.1174704971E-04
          0                 5           1             1    1     1      -0.8663709622E-06       2    4    1         0.8108240479E-07      0.8832174843E-06

    ------------------------------------------------
       NWT REQUIRED            5 OUTER ITERATIONS 
       AND A TOTAL OF          8 INNER ITERATIONS.
    ------------------------------------------------

 NO OUTPUT CONTROL FOR STRESS PERIOD   48   TIME STEP   18
 
 WELLS WITH REDUCED PUMPING FOR STRESS PERIOD    48 TIME STEP    18
   LAY   ROW   COL         APPL.Q          ACT.Q        GW-HEAD       CELL-BOT
     1     3    50  -0.620021E+00  -0.295015E+00   0.541935E-03   0.000000E+00
     1     5    55  -0.620021E+00  -0.227959E+00   0.456022E-03   0.000000E+00
 
 
 SOLVING FOR HEAD 
                                                   Max.-Head-Change                         Max.-Flux-Residual
  Residual-Control   Outer-Iter.   Inner-Iter.     Column Row Layer    Maximum-Head-Change  Column Row Layer    Maximum-Flux-Residual          L2-NORM 
          0                 1           2             1    1     1      -0.2492062469E-01       3    3    1        -0.9367248640E-03      0.1501362771E-01
          0                 2           2             1    1     1       0.2296677892E-02       3    3    1         0.9366888323E-04      0.1462623090E-02
          0                 3           2             2    1     1      -0.1913787277E-03       3    3    1        -0.8430514093E-05      0.1367963925E-03
          0                 4           1             1    1     1       0.1426964227E-04      28    4    1        -0.9156017082E-06      0.1173346313E-04
          0                 5           1             1    1     1      -0.9372771654E-06       2    4    1         0.8268952278E-07      0.8847394412E-06

    ------------------------------------------------
       NWT REQUIRED            5 OUTER ITERATIONS 
       AND A TOTAL OF          8 INNER ITERATIONS.
    ------------------------------------------------

 NO OUTPUT CONTROL FOR STRESS PERIOD   48   TIME STEP   19
 
 WELLS WITH REDUCED PUMPING FOR STRESS PERIOD    48 TIME STEP    19
   LAY   ROW   COL         APPL.Q          ACT.Q        GW-HEAD       CELL-BOT
     1     3    50  -0.619987E+00  -0.294763E+00   0.541651E-03   0.000000E+00
     1     5    55  -0.619987E+00  -0.227788E+00   0.455827E-03   0.000000E+00
 
 
 SOLVING FOR HEAD 
                                                   Max.-Head-Change                         Max.-Flux-Residual
  Residual-Control   Outer-Iter.   Inner-Iter.     Column Row Layer    Maximum-Head-Change  Column Row Layer    Maximum-Flux-Residual          L2-NORM 
          0                 1           2             1    1     1      -0.2740244096E-01       1    3    1        -0.9377479880E-03      0.1494682271E-01
          0                 2           2             1    1     1       0.2518478965E-02       1    3    1         0.9377046928E-04      0.1456394318E-02
          0                 3           2             1    1     1      -0.2091347123E-03       1    3    1        -0.8439692202E-05      0.1363925913E-03
          0                 4           1             1    1     1       0.1552838377E-04      30    4    1        -0.9060632156E-06      0.1173066958E-04
          0                 5           1             1    1     1      -0.1013811365E-05       2    4    1         0.8442608390E-07      0.8868079016E-06
          0                 6           1             1    1     1       0.5749396296E-07       2    4    1        -0.6228164651E-08      0.5732618280E-07

    ------------------------------------------------
       NWT REQUIRED            6 OUTER ITERATIONS 
       AND A TOTAL OF          9 INNER ITERATIONS.
    ------------------------------------------------

 NO OUTPUT CONTROL FOR STRESS PERIOD   48   TIME STEP   20
 
 WELLS WITH REDUCED PUMPING FOR STRESS PERIOD    48 TIME STEP    20
   LAY   ROW   COL         APPL.Q          ACT.Q        GW-HEAD       CELL-BOT
     1     3    50  -0.619981E+00  -0.294483E+00   0.541317E-03   0.000000E+00
     1     5    55  -0.619981E+00  -0.227596E+00   0.455592E-03   0.000000E+00
 
 
 SOLVING FOR HEAD 
                                                   Max.-Head-Change                         Max.-Flux-Residual
  Residual-Control   Outer-Iter.   Inner-Iter.     Column Row Layer    Maximum-Head-Change  Column Row Layer    Maximum-Flux-Residual          L2-NORM 
          0                 1           2             1    1     1      -0.3012032866E-01       1    5    1        -0.9370239357E-03      0.1487933764E-01
          0                 2           2             1    1     1       0.2760751467E-02       1    5    1         0.9369772386E-04      0.1449669492E-02
          0                 3           2             1    1     1      -0.2284626147E-03       1    5    1        -0.8433181144E-05      0.1359066745E-03
          0                 4           1             1    1     1       0.1689092743E-04       1    4    1        -0.8948841472E-06      0.1171904092E-04
          0                 5           1             1    1     1      -0.1095388437E-05       2    4    1         0.8587378275E-07      0.8878499848E-06
          0                 6           1             1    1     1       0.6168832019E-07       2    4    1        -0.6359639926E-08      0.5753992951E-07

    ------------------------------------------------
       NWT REQUIRED            6 OUTER ITERATIONS 
       AND A TOTAL OF          9 INNER ITERATIONS.
    ------------------------------------------------

 NO OUTPUT CONTROL FOR STRESS PERIOD   48   TIME STEP   21
 
 WELLS WITH REDUCED PUMPING FOR STRESS PERIOD    48 TIME STEP    21
   LAY   ROW   COL         APPL.Q          ACT.Q        GW-HEAD       CELL-BOT
     1     3    50  -0.620000E+00  -0.294179E+00   0.540939E-03   0.000000E+00
     1     5    55  -0.620000E+00  -0.227388E+00   0.455327E-03   0.000000E+00
 
 
 SOLVING FOR HEAD 
                                                   Max.-Head-Change                         Max.-Flux-Residual
  Residual-Control   Outer-Iter.   Inner-Iter.     Column Row Layer    Maximum-Head-Change  Column Row Layer    Maximum-Flux-Residual          L2-NORM 
          0                 1           2             1    1     1      -0.3310222429E-01       1    5    1        -0.9363635913E-03      0.1481286953E-01
          0                 2           2             1    1     1       0.3026130250E-02       1    7    1         0.9363216502E-04      0.1443294644E-02
          0                 3           2             1    1     1      -0.2495817027E-03       1    5    1        -0.8427241271E-05      0.1354630518E-03
          0                 4           1             1    1     1       0.1837334728E-04       1    4    1        -0.9050543586E-06      0.1171000468E-04
          0                 5           1             1    1     1      -0.1182647177E-05       2    4    1         0.8721497480E-07      0.8885796291E-06
          0                 6           1             1    1     1       0.6608683033E-07       2    4    1        -0.6480886938E-08      0.5770135448E-07

    ------------------------------------------------
       NWT REQUIRED            6 OUTER ITERATIONS 
       AND A TOTAL OF          9 INNER ITERATIONS.
    ------------------------------------------------

 NO OUTPUT CONTROL FOR STRESS PERIOD   48   TIME STEP   22
 
 WELLS WITH REDUCED PUMPING FOR STRESS PERIOD    48 TIME STEP    22
   LAY   ROW   COL         APPL.Q          ACT.Q        GW-HEAD       CELL-BOT
     1     3    50  -0.619996E+00  -0.293840E+00   0.540534E-03   0.000000E+00
     1     5    55  -0.619996E+00  -0.227159E+00   0.455047E-03   0.000000E+00
 
 
 SOLVING FOR HEAD 
                                                   Max.-Head-Change                         Max.-Flux-Residual
  Residual-Control   Outer-Iter.   Inner-Iter.     Column Row Layer    Maximum-Head-Change  Column Row Layer    Maximum-Flux-Residual          L2-NORM 
          0                 1           2             1    1     1      -0.3637529151E-01       1    7    1        -0.9357048499E-03      0.1475753518E-01
          0                 2           2             1    1     1       0.3317041738E-02       1    7    1         0.9356694455E-04      0.1437542704E-02
          0                 3           2             1    1     1      -0.2726848023E-03       1    7    1        -0.8421380090E-05      0.1350201765E-03
          0                 4           1             1    1     1       0.1998853498E-04       1    4    1        -0.9144120305E-06      0.1169656009E-04
          0                 5           1             1    1     1      -0.1275801381E-05       2    4    1         0.8846004285E-07      0.8882505270E-06
          0                 6           1             1    1     1       0.7067301955E-07       2    4    1        -0.6591726276E-08      0.5775647786E-07

    ------------------------------------------------
       NWT REQUIRED            6 OUTER ITERATIONS 
       AND A TOTAL OF          9 INNER ITERATIONS.
    ------------------------------------------------

 NO OUTPUT CONTROL FOR STRESS PERIOD   48   TIME STEP   23
 
 WELLS WITH REDUCED PUMPING FOR STRESS PERIOD    48 TIME STEP    23
   LAY   ROW   COL         APPL.Q          ACT.Q        GW-HEAD       CELL-BOT
     1     3    50  -0.620011E+00  -0.293458E+00   0.540064E-03   0.000000E+00
     1     5    55  -0.620011E+00  -0.226881E+00   0.454697E-03   0.000000E+00
 
 
 SOLVING FOR HEAD 
                                                   Max.-Head-Change                         Max.-Flux-Residual
  Residual-Control   Outer-Iter.   Inner-Iter.     Column Row Layer    Maximum-Head-Change  Column Row Layer    Maximum-Flux-Residual          L2-NORM 
          0                 1           2             1    1     1      -0.3997003331E-01       1    7    1        -0.9349439616E-03      0.1470751397E-01
          0                 2           2             5    1     1       0.3640361169E-02       1    1    1         0.9349039895E-04      0.1432132479E-02
          0                 3           2             6    7     1      -0.2995488543E-03       1    7    1        -0.8414535242E-05      0.1344246321E-03
          0                 4           1             6    1     1       0.2192955458E-04       4    4    1        -0.9238954171E-06      0.1165314259E-04
          0                 5           1             5    1     1      -0.1381100010E-05       4    4    1         0.8989817246E-07      0.8841540857E-06
          0                 6           1             1    1     1       0.7539786965E-07       4    4    1        -0.6724494739E-08      0.5750581953E-07

    ------------------------------------------------
       NWT REQUIRED            6 OUTER ITERATIONS 
       AND A TOTAL OF          9 INNER ITERATIONS.
    ------------------------------------------------

 NO OUTPUT CONTROL FOR STRESS PERIOD   48   TIME STEP   24
 
 WELLS WITH REDUCED PUMPING FOR STRESS PERIOD    48 TIME STEP    24
   LAY   ROW   COL         APPL.Q          ACT.Q        GW-HEAD       CELL-BOT
     1     3    50  -0.619997E+00  -0.293002E+00   0.539522E-03   0.000000E+00
     1     5    55  -0.619997E+00  -0.226560E+00   0.454307E-03   0.000000E+00
 
 
 SOLVING FOR HEAD 
                                                   Max.-Head-Change                         Max.-Flux-Residual
  Residual-Control   Outer-Iter.   Inner-Iter.     Column Row Layer    Maximum-Head-Change  Column Row Layer    Maximum-Flux-Residual          L2-NORM 
          0                 1           2             4    1     1      -0.4402718032E-01       1    7    1        -0.9341126938E-03      0.1464101920E-01
          0                 2           2             4    1     1       0.4017497627E-02       1    1    1         0.9340744475E-04      0.1425075212E-02
          0                 3           2             4    1     1      -0.3297999710E-03       1    7    1        -0.8407103789E-05      0.1336971294E-03
          0                 4           1             4    1     1       0.2406262623E-04       1    4    1        -0.9376322545E-06      0.1159965650E-04
          0                 5           1             4    1     1      -0.1505361929E-05       1    4    1         0.9047142235E-07      0.8785241351E-06
          0                 6           1             4    1     1       0.8137125017E-07       1    4    1        -0.6686727616E-08      0.5710656912E-07

    ------------------------------------------------
       NWT REQUIRED            6 OUTER ITERATIONS 
       AND A TOTAL OF          9 INNER ITERATIONS.
    ------------------------------------------------

 NO OUTPUT CONTROL FOR STRESS PERIOD   48   TIME STEP   25
 
 WELLS WITH REDUCED PUMPING FOR STRESS PERIOD    48 TIME STEP    25
   LAY   ROW   COL         APPL.Q          ACT.Q        GW-HEAD       CELL-BOT
     1     3    50  -0.620007E+00  -0.292541E+00   0.538961E-03   0.000000E+00
     1     5    55  -0.620007E+00  -0.226241E+00   0.453909E-03   0.000000E+00
 
 
 SOLVING FOR HEAD 
                                                   Max.-Head-Change                         Max.-Flux-Residual
  Residual-Control   Outer-Iter.   Inner-Iter.     Column Row Layer    Maximum-Head-Change  Column Row Layer    Maximum-Flux-Residual          L2-NORM 
          0                 1           3             2    1     1      -0.4855699061E-01       4    3    1        -0.9373287888E-03      0.1455429392E-01
          0                 2           2             2    1     1       0.4423275726E-02       4    3    1         0.9372649884E-04      0.1418252506E-02
          0                 3           2             2    1     1      -0.3621889078E-03       4    3    1        -0.8437411669E-05      0.1331705282E-03
          0                 4           1             3    1     1       0.2632231261E-04      16    4    1        -0.8854691149E-06      0.1157160733E-04
          0                 5           1             1    1     1      -0.1629010479E-05      16    4    1         0.8659943518E-07      0.8741023554E-06
          0                 6           1             1    1     1       0.8729746448E-07       4    4    1        -0.6530804342E-08      0.5673254271E-07

    ------------------------------------------------
       NWT REQUIRED            6 OUTER ITERATIONS 
       AND A TOTAL OF         10 INNER ITERATIONS.
    ------------------------------------------------

 NO OUTPUT CONTROL FOR STRESS PERIOD   48   TIME STEP   26
 
 WELLS WITH REDUCED PUMPING FOR STRESS PERIOD    48 TIME STEP    26
   LAY   ROW   COL         APPL.Q          ACT.Q        GW-HEAD       CELL-BOT
     1     3    50  -0.620004E+00  -0.292050E+00   0.538370E-03   0.000000E+00
     1     5    55  -0.620004E+00  -0.225904E+00   0.453493E-03   0.000000E+00
 
 
 SOLVING FOR HEAD 
                                                   Max.-Head-Change                         Max.-Flux-Residual
  Residual-Control   Outer-Iter.   Inner-Iter.     Column Row Layer    Maximum-Head-Change  Column Row Layer    Maximum-Flux-Residual          L2-NORM 
          0                 1           3             1    1     1      -0.5312399876E-01       2    3    1        -0.9398607286E-03      0.1440412701E-01
          0                 2           2             1    1     1       0.4800753680E-02       2    3    1         0.9397168678E-04      0.1410353837E-02
          0                 3           2             1    1     1      -0.3898184618E-03       2    3    1        -0.8456973134E-05      0.1332713017E-03
          0                 4           1             6    1     1       0.2820789650E-04       9    4    1        -0.1002643163E-05      0.1164496554E-04
          0                 5           1             1    1     1      -0.1705703146E-05       9    4    1         0.9607170348E-07      0.8785495890E-06
          0                 6           1             1    1     1       0.9002898227E-07       2    4    1        -0.7112479494E-08      0.5693261577E-07

    ------------------------------------------------
       NWT REQUIRED            6 OUTER ITERATIONS 
       AND A TOTAL OF         10 INNER ITERATIONS.
    ------------------------------------------------

 NO OUTPUT CONTROL FOR STRESS PERIOD   48   TIME STEP   27
 
 WELLS WITH REDUCED PUMPING FOR STRESS PERIOD    48 TIME STEP    27
   LAY   ROW   COL         APPL.Q          ACT.Q        GW-HEAD       CELL-BOT
     1     3    50  -0.620001E+00  -0.291509E+00   0.537719E-03   0.000000E+00
     1     5    55  -0.620001E+00  -0.225532E+00   0.453036E-03   0.000000E+00
 
 
 SOLVING FOR HEAD 
                                                   Max.-Head-Change                         Max.-Flux-Residual
  Residual-Control   Outer-Iter.   Inner-Iter.     Column Row Layer    Maximum-Head-Change  Column Row Layer    Maximum-Flux-Residual          L2-NORM 
          0                 1           3             1    1     1      -0.5408658310E-01       1    7    1        -0.9333005186E-03      0.1401694101E-01
          0                 2           2             4    1     1       0.4929502481E-02       1    7    1         0.9327510093E-04      0.1412388971E-02
          0                 3           2             5    1     1      -0.4054195417E-03       1    4    1         0.1033815177E-04      0.1356201707E-03
          0                 4           1             5    1     1       0.2951873109E-04       1    4    1        -0.1197601254E-05      0.1190106038E-04
          0                 5           1             4    1     1      -0.1770859661E-05       2    4    1         0.1071425810E-06      0.8914319353E-06
          0                 6           1             4    1     1       0.9232702799E-07       2    4    1        -0.7665418522E-08      0.5734819776E-07

    ------------------------------------------------
       NWT REQUIRED            6 OUTER ITERATIONS 
       AND A TOTAL OF         10 INNER ITERATIONS.
    ------------------------------------------------

 NO OUTPUT CONTROL FOR STRESS PERIOD   48   TIME STEP   28
 
 WELLS WITH REDUCED PUMPING FOR STRESS PERIOD    48 TIME STEP    28
   LAY   ROW   COL         APPL.Q          ACT.Q        GW-HEAD       CELL-BOT
     1     3    50  -0.619989E+00  -0.290922E+00   0.537018E-03   0.000000E+00
     1     5    55  -0.619989E+00  -0.225132E+00   0.452546E-03   0.000000E+00
 
 
 SOLVING FOR HEAD 
                                                   Max.-Head-Change                         Max.-Flux-Residual
  Residual-Control   Outer-Iter.   Inner-Iter.     Column Row Layer    Maximum-Head-Change  Column Row Layer    Maximum-Flux-Residual          L2-NORM 
          0                 1           3             2    1     1      -0.5852870136E-01       1    7    1        -0.8634927177E-03      0.1338514030E-01
          0                 2           2             4    1     1       0.5323029907E-02       1    7    1         0.8633345482E-04      0.1326383744E-02
          0                 3           2             5    1     1      -0.4352617746E-03      27    4    1         0.9700137449E-05      0.1262984127E-03
          0                 4           1             5    1     1       0.3143088313E-04      27    4    1        -0.1080560786E-05      0.1107722970E-04
          0                 5           1             4    1     1      -0.1833501764E-05      26    4    1         0.9279774282E-07      0.8244089935E-06
          0                 6           1             3    1     1       0.9273643903E-07      26    4    1        -0.6546123643E-08      0.5292395741E-07

    ------------------------------------------------
       NWT REQUIRED            6 OUTER ITERATIONS 
       AND A TOTAL OF         10 INNER ITERATIONS.
    ------------------------------------------------

 NO OUTPUT CONTROL FOR STRESS PERIOD   48   TIME STEP   29
 
 WELLS WITH REDUCED PUMPING FOR STRESS PERIOD    48 TIME STEP    29
   LAY   ROW   COL         APPL.Q          ACT.Q        GW-HEAD       CELL-BOT
     1     3    50  -0.620007E+00  -0.290285E+00   0.536239E-03   0.000000E+00
     1     5    55  -0.620007E+00  -0.224685E+00   0.451987E-03   0.000000E+00
 
 
 SOLVING FOR HEAD 
                                                   Max.-Head-Change                         Max.-Flux-Residual
  Residual-Control   Outer-Iter.   Inner-Iter.     Column Row Layer    Maximum-Head-Change  Column Row Layer    Maximum-Flux-Residual          L2-NORM 
          0                 1           3             1    1     1      -0.6426346494E-01       1    7    1        -0.8496840411E-03      0.1306249453E-01
          0                 2           2             3    1     1       0.5844950975E-02       1    7    1         0.8496173361E-04      0.1286514869E-02
          0                 3           2             4    1     1      -0.4773113829E-03      34    4    1         0.8802163404E-05      0.1220737663E-03
          0                 4           1             4    1     1       0.3434893262E-04      34    4    1        -0.9623245560E-06      0.1070654116E-04
          0                 5           1             3    1     1      -0.1951727070E-05      12    4    1         0.8548471087E-07      0.7892193756E-06
          0                 6           1             3    1     1       0.9636263614E-07      12    4    1        -0.6242938611E-08      0.5042433131E-07

    ------------------------------------------------
       NWT REQUIRED            6 OUTER ITERATIONS 
       AND A TOTAL OF         10 INNER ITERATIONS.
    ------------------------------------------------

 NO OUTPUT CONTROL FOR STRESS PERIOD   48   TIME STEP   30
 
 WELLS WITH REDUCED PUMPING FOR STRESS PERIOD    48 TIME STEP    30
   LAY   ROW   COL         APPL.Q          ACT.Q        GW-HEAD       CELL-BOT
     1     3    50  -0.619949E+00  -0.289549E+00   0.535384E-03   0.000000E+00
     1     5    55  -0.619949E+00  -0.224180E+00   0.451388E-03   0.000000E+00
 



 STREAM LISTING     PERIOD     48   STEP       30

 LAYER ROW COL. STREAM  RCH.   FLOW INTO    STREAM     FLOW OUT OF   OVRLND.    DIRECT     STREAM      STREAM      STREAM     STREAM  STREAMBED   FLOW TO   CHNG. UNSAT. 
                SEG.NO.  NO.   STRM. RCH.    LOSS       STRM. RCH.   RUNOFF     PRECIP       ET         HEAD        DEPTH      WIDTH  CONDCTNC.   WAT. TAB.

   1    4    1     1     1    4.2000E+00  1.5035E-03   4.1985E+00  0.000E+00  0.000E+00  0.000E+00  1.41391E+02  1.541E+00  3.656E+00  7.366E-04  1.524E-03 -2.059E-05
   1    4    2     1     2    4.1985E+00  1.5031E-03   4.1970E+00  0.000E+00  0.000E+00  0.000E+00  1.41091E+02  1.541E+00  3.656E+00  7.365E-04  1.516E-03 -1.297E-05
   1    4    3     1     3    4.1970E+00  1.5027E-03   4.1955E+00  0.000E+00  0.000E+00  0.000E+00  1.40791E+02  1.541E+00  3.656E+00  7.364E-04  1.515E-03 -1.235E-05
   1    4    4     1     4    4.1955E+00  1.5023E-03   4.1940E+00  0.000E+00  0.000E+00  0.000E+00  1.40490E+02  1.540E+00  3.655E+00  7.363E-04  1.514E-03 -1.207E-05
   1    4    5     1     5    4.1940E+00  1.5019E-03   4.1925E+00  0.000E+00  0.000E+00  0.000E+00  1.40190E+02  1.540E+00  3.655E+00  7.362E-04  1.514E-03 -1.215E-05
   1    4    6     1     6    4.1925E+00  1.5015E-03   4.1910E+00  0.000E+00  0.000E+00  0.000E+00  1.39890E+02  1.540E+00  3.655E+00  7.361E-04  1.514E-03 -1.258E-05
   1    4    7     1     7    4.1910E+00  1.5011E-03   4.1895E+00  0.000E+00  0.000E+00  0.000E+00  1.39590E+02  1.540E+00  3.654E+00  7.360E-04  1.514E-03 -1.337E-05
   1    4    8     1     8    4.1895E+00  1.5007E-03   4.1880E+00  0.000E+00  0.000E+00  0.000E+00  1.39289E+02  1.539E+00  3.654E+00  7.359E-04  1.515E-03 -1.451E-05
   1    4    9     1     9    4.1880E+00  1.5003E-03   4.1865E+00  0.000E+00  0.000E+00  0.000E+00  1.38989E+02  1.539E+00  3.654E+00  7.358E-04  1.516E-03 -1.601E-05
   1    4   10     1    10    4.1865E+00  1.4999E-03   4.1850E+00  0.000E+00  0.000E+00  0.000E+00  1.38689E+02  1.539E+00  3.653E+00  7.357E-04  1.518E-03 -1.785E-05
   1    4   11     1    11    4.1850E+00  1.4995E-03   4.1835E+00  0.000E+00  0.000E+00  0.000E+00  1.38388E+02  1.538E+00  3.653E+00  7.356E-04  1.526E-03 -2.608E-05
   1    4   12     1    12    4.1835E+00  1.4991E-03   4.1820E+00  0.000E+00  0.000E+00  0.000E+00  1.38088E+02  1.538E+00  3.653E+00  7.355E-04  1.526E-03 -2.686E-05
   1    4   13     1    13    4.1820E+00  1.4987E-03   4.1805E+00  0.000E+00  0.000E+00  0.000E+00  1.37788E+02  1.538E+00  3.652E+00  7.354E-04  1.526E-03 -2.696E-05
   1    4   14     1    14    4.1805E+00  1.4983E-03   4.1790E+00  0.000E+00  0.000E+00  0.000E+00  1.37488E+02  1.538E+00  3.652E+00  7.354E-04  1.525E-03 -2.708E-05
   1    4   15     1    15    4.1790E+00  1.4979E-03   4.1775E+00  0.000E+00  0.000E+00  0.000E+00  1.37187E+02  1.537E+00  3.652E+00  7.353E-04  1.525E-03 -2.723E-05
   1    4   16     1    16    4.1775E+00  1.4975E-03   4.1760E+00  0.000E+00  0.000E+00  0.000E+00  1.36887E+02  1.537E+00  3.651E+00  7.352E-04  1.525E-03 -2.741E-05
   1    4   17     1    17    4.1760E+00  1.4971E-03   4.1745E+00  0.000E+00  0.000E+00  0.000E+00  1.36587E+02  1.537E+00  3.651E+00  7.351E-04  1.525E-03 -2.763E-05
   1    4   18     1    18    4.1745E+00  1.4967E-03   4.1730E+00  0.000E+00  0.000E+00  0.000E+00  1.36286E+02  1.536E+00  3.651E+00  7.350E-04  1.525E-03 -2.787E-05
   1    4   19     1    19    4.1730E+00  1.4963E-03   4.1715E+00  0.000E+00  0.000E+00  0.000E+00  1.35986E+02  1.536E+00  3.650E+00  7.349E-04  1.524E-03 -2.812E-05
   1    4   20     1    20    4.1715E+00  1.4959E-03   4.1700E+00  0.000E+00  0.000E+00  0.000E+00  1.35686E+02  1.536E+00  3.650E+00  7.348E-04  1.524E-03 -2.834E-05
   1    4   21     1    21    4.1700E+00  1.4955E-03   4.1685E+00  0.000E+00  0.000E+00  0.000E+00  1.35386E+02  1.536E+00  3.650E+00  7.347E-04  1.547E-03 -5.171E-05
   1    4   22     1    22    4.1685E+00  1.4951E-03   4.1670E+00  0.000E+00  0.000E+00  0.000E+00  1.35085E+02  1.535E+00  3.649E+00  7.346E-04  1.572E-03 -7.709E-05
   1    4   23     1    23    4.1670E+00  1.4947E-03   4.1655E+00  0.000E+00  0.000E+00  0.000E+00  1.34785E+02  1.535E+00  3.649E+00  7.345E-04  1.572E-03 -7.759E-05
   1    4   24     1    24    4.1655E+00  1.4943E-03   4.1640E+00  0.000E+00  0.000E+00  0.000E+00  1.34485E+02  1.535E+00  3.649E+00  7.344E-04  1.572E-03 -7.808E-05
   1    4   25     1    25    4.1640E+00  1.4939E-03   4.1625E+00  0.000E+00  0.000E+00  0.000E+00  1.34184E+02  1.534E+00  3.648E+00  7.343E-04  1.572E-03 -7.858E-05
   1    4   26     1    26    4.1625E+00  1.4935E-03   4.1610E+00  0.000E+00  0.000E+00  0.000E+00  1.33884E+02  1.534E+00  3.648E+00  7.342E-04  1.573E-03 -7.907E-05
   1    4   27     1    27    4.1610E+00  1.4931E-03   4.1595E+00  0.000E+00  0.000E+00  0.000E+00  1.33584E+02  1.534E+00  3.648E+00  7.341E-04  1.576E-03 -8.309E-05
   1    4   28     1    28    4.1595E+00  1.4927E-03   4.1581E+00  0.000E+00  0.000E+00  0.000E+00  1.33284E+02  1.534E+00  3.647E+00  7.340E-04  1.583E-03 -9.031E-05
   1    4   29     1    29    4.1581E+00  1.4923E-03   4.1566E+00  0.000E+00  0.000E+00  0.000E+00  1.32983E+02  1.533E+00  3.647E+00  7.340E-04  1.584E-03 -9.128E-05
   1    4   30     1    30    4.1566E+00  1.4919E-03   4.1551E+00  0.000E+00  0.000E+00  0.000E+00  1.32683E+02  1.533E+00  3.647E+00  7.339E-04  1.584E-03 -9.230E-05
   1    4   31     1    31    4.1551E+00  1.4915E-03   4.1536E+00  0.000E+00  0.000E+00  0.000E+00  1.32383E+02  1.533E+00  3.646E+00  7.338E-04  1.585E-03 -9.339E-05
   1    4   32     1    32    4.1536E+00  1.4911E-03   4.1521E+00  0.000E+00  0.000E+00  0.000E+00  1.32082E+02  1.532E+00  3.646E+00  7.337E-04  1.586E-03 -9.454E-05
   1    4   33     1    33    4.1521E+00  1.4907E-03   4.1506E+00  0.000E+00  0.000E+00  0.000E+00  1.31782E+02  1.532E+00  3.646E+00  7.336E-04  1.586E-03 -9.565E-05
   1    4   34     1    34    4.1506E+00  1.4903E-03   4.1491E+00  0.000E+00  0.000E+00  0.000E+00  1.31482E+02  1.532E+00  3.645E+00  7.335E-04  1.567E-03 -7.695E-05
   1    4   35     1    35    4.1491E+00  1.4899E-03   4.1476E+00  0.000E+00  0.000E+00  0.000E+00  1.31182E+02  1.532E+00  3.645E+00  7.334E-04  1.466E-03  2.344E-05
   1    4   36     1    36    4.1476E+00  1.4895E-03   4.1461E+00  0.000E+00  0.000E+00  0.000E+00  1.30881E+02  1.531E+00  3.645E+00  7.333E-04  1.357E-03  1.327E-04
   1    4   37     1    37    4.1461E+00  1.4891E-03   4.1446E+00  0.000E+00  0.000E+00  0.000E+00  1.30581E+02  1.531E+00  3.644E+00  7.332E-04  1.240E-03  2.490E-04
   1    4   38     1    38    4.1446E+00  1.4887E-03   4.1431E+00  0.000E+00  0.000E+00  0.000E+00  1.30281E+02  1.531E+00  3.644E+00  7.331E-04  1.116E-03  3.730E-04
   1    4   39     1    39    4.1431E+00  1.4883E-03   4.1417E+00  0.000E+00  0.000E+00  0.000E+00  1.29980E+02  1.530E+00  3.643E+00  7.330E-04  1.016E-03  4.730E-04
   1    4   40     1    40    4.1417E+00  1.4879E-03   4.1402E+00  0.000E+00  0.000E+00  0.000E+00  1.29680E+02  1.530E+00  3.643E+00  7.329E-04  1.016E-03  4.721E-04
   1    4   41     1    41    4.1402E+00  1.4875E-03   4.1387E+00  0.000E+00  0.000E+00  0.000E+00  1.29380E+02  1.530E+00  3.643E+00  7.328E-04  1.017E-03  4.708E-04
   1    4   42     1    42    4.1387E+00  1.4871E-03   4.1372E+00  0.000E+00  0.000E+00  0.000E+00  1.29080E+02  1.530E+00  3.642E+00  7.327E-04  1.018E-03  4.693E-04
   1    4   43     1    43    4.1372E+00  1.4867E-03   4.1357E+00  0.000E+00  0.000E+00  0.000E+00  1.28779E+02  1.529E+00  3.642E+00  7.327E-04  1.019E-03  4.675E-04
   1    4   44     1    44    4.1357E+00  1.4863E-03   4.1342E+00  0.000E+00  0.000E+00  0.000E+00  1.28479E+02  1.529E+00  3.642E+00  7.326E-04  1.021E-03  4.653E-04
   1    4   45     1    45    4.1342E+00  1.4859E-03   4.1327E+00  0.000E+00  0.000E+00  0.000E+00  1.28179E+02  1.529E+00  3.641E+00  7.325E-04  1.024E-03  4.621E-04
   1    4   46     1    46    4.1327E+00  1.4855E-03   4.1313E+00  0.000E+00  0.000E+00  0.000E+00  1.27878E+02  1.528E+00  3.641E+00  7.324E-04  1.028E-03  4.573E-04
   1    4   47     1    47    4.1313E+00  1.4851E-03   4.1298E+00  0.000E+00  0.000E+00  0.000E+00  1.27578E+02  1.528E+00  3.641E+00  7.323E-04  6.883E-04  7.971E-04
   1    4   48     1    48    4.1298E+00  1.4847E-03   4.1283E+00  0.000E+00  0.000E+00  0.000E+00  1.27278E+02  1.528E+00  3.640E+00  7.322E-04  5.354E-04  9.495E-04
   1    4   49     1    49    4.1283E+00  1.4843E-03   4.1268E+00  0.000E+00  0.000E+00  0.000E+00  1.26978E+02  1.528E+00  3.640E+00  7.321E-04  5.717E-04  9.128E-04
   1    4   50     1    50    4.1268E+00  1.4839E-03   4.1253E+00  0.000E+00  0.000E+00  0.000E+00  1.26677E+02  1.527E+00  3.640E+00  7.320E-04  5.233E-04  9.608E-04
   1    4   51     1    51    4.1253E+00  1.4835E-03   4.1238E+00  0.000E+00  0.000E+00  0.000E+00  1.26377E+02  1.527E+00  3.639E+00  7.319E-04  5.811E-04  9.026E-04
   1    4   52     1    52    4.1238E+00  1.4831E-03   4.1223E+00  0.000E+00  0.000E+00  0.000E+00  1.26077E+02  1.527E+00  3.639E+00  7.318E-04  5.794E-04  9.039E-04
   1    4   53     1    53    4.1223E+00  1.4827E-03   4.1209E+00  0.000E+00  0.000E+00  0.000E+00  1.25776E+02  1.526E+00  3.639E+00  7.317E-04  5.791E-04  9.038E-04
   1    4   54     1    54    4.1209E+00  1.4823E-03   4.1194E+00  0.000E+00  0.000E+00  0.000E+00  1.25476E+02  1.526E+00  3.638E+00  7.316E-04  5.804E-04  9.022E-04
   1    4   55     1    55    4.1194E+00  1.4819E-03   4.1179E+00  0.000E+00  0.000E+00  0.000E+00  1.25176E+02  1.526E+00  3.638E+00  7.315E-04  5.364E-04  9.458E-04
   1    4   56     1    56    4.1179E+00  1.4816E-03   4.1164E+00  0.000E+00  0.000E+00  0.000E+00  1.24876E+02  1.526E+00  3.638E+00  7.314E-04  5.786E-04  9.031E-04
   1    4   57     1    57    4.1164E+00  1.4812E-03   4.1149E+00  0.000E+00  0.000E+00  0.000E+00  1.24575E+02  1.525E+00  3.637E+00  7.313E-04  5.361E-04  9.453E-04
   1    4   58     1    58    4.1149E+00  1.4808E-03   4.1135E+00  0.000E+00  0.000E+00  0.000E+00  1.24275E+02  1.525E+00  3.637E+00  7.313E-04  6.374E-04  8.435E-04
   1    4   59     1    59    4.1135E+00  1.4804E-03   4.1120E+00  0.000E+00  0.000E+00  0.000E+00  1.23975E+02  1.525E+00  3.637E+00  7.312E-04  1.010E-03  4.710E-04
   1    4   60     1    60    4.1120E+00  1.4800E-03   4.1105E+00  0.000E+00  0.000E+00  0.000E+00  1.23674E+02  1.524E+00  3.636E+00  7.311E-04  1.026E-03  4.539E-04
   1    4   61     1    61    4.1105E+00  1.4796E-03   4.1090E+00  0.000E+00  0.000E+00  0.000E+00  1.23374E+02  1.524E+00  3.636E+00  7.310E-04  1.023E-03  4.567E-04
   1    4   62     1    62    4.1090E+00  1.4792E-03   4.1075E+00  0.000E+00  0.000E+00  0.000E+00  1.23074E+02  1.524E+00  3.636E+00  7.309E-04  1.021E-03  4.582E-04
   1    4   63     1    63    4.1075E+00  1.4788E-03   4.1061E+00  0.000E+00  0.000E+00  0.000E+00  1.22774E+02  1.524E+00  3.635E+00  7.308E-04  1.020E-03  4.593E-04
   1    4   64     1    64    4.1061E+00  1.4784E-03   4.1046E+00  0.000E+00  0.000E+00  0.000E+00  1.22473E+02  1.523E+00  3.635E+00  7.307E-04  1.019E-03  4.601E-04
   1    4   65     1    65    4.1046E+00  1.4780E-03   4.1031E+00  0.000E+00  0.000E+00  0.000E+00  1.22173E+02  1.523E+00  3.635E+00  7.306E-04  1.018E-03  4.605E-04
   1    4   66     1    66    4.1031E+00  1.4776E-03   4.1016E+00  0.000E+00  0.000E+00  0.000E+00  1.21873E+02  1.523E+00  3.634E+00  7.305E-04  1.058E-03  4.197E-04
   1    4   67     1    67    4.1016E+00  1.4772E-03   4.1001E+00  0.000E+00  0.000E+00  0.000E+00  1.21572E+02  1.522E+00  3.634E+00  7.304E-04  1.214E-03  2.630E-04
   1    4   68     1    68    4.1001E+00  1.4768E-03   4.0987E+00  0.000E+00  0.000E+00  0.000E+00  1.21272E+02  1.522E+00  3.634E+00  7.303E-04  1.364E-03  1.132E-04
   1    4   69     1    69    4.0987E+00  1.4764E-03   4.0972E+00  0.000E+00  0.000E+00  0.000E+00  1.20972E+02  1.522E+00  3.633E+00  7.302E-04  1.507E-03 -3.001E-05
   1    4   70     1    70    4.0972E+00  1.4760E-03   4.0957E+00  0.000E+00  0.000E+00  0.000E+00  1.20672E+02  1.522E+00  3.633E+00  7.301E-04  1.593E-03 -1.164E-04
   1    4   71     1    71    4.0957E+00  1.4756E-03   4.0942E+00  0.000E+00  0.000E+00  0.000E+00  1.20371E+02  1.521E+00  3.633E+00  7.300E-04  1.591E-03 -1.154E-04
   1    4   72     1    72    4.0942E+00  1.4752E-03   4.0928E+00  0.000E+00  0.000E+00  0.000E+00  1.20071E+02  1.521E+00  3.632E+00  7.300E-04  1.590E-03 -1.143E-04
   1    4   73     1    73    4.0928E+00  1.4748E-03   4.0913E+00  0.000E+00  0.000E+00  0.000E+00  1.19771E+02  1.521E+00  3.632E+00  7.299E-04  1.588E-03 -1.132E-04
   1    4   74     1    74    4.0913E+00  1.4744E-03   4.0898E+00  0.000E+00  0.000E+00  0.000E+00  1.19470E+02  1.520E+00  3.632E+00  7.298E-04  1.587E-03 -1.125E-04
   1    4   75     1    75    4.0898E+00  1.4740E-03   4.0883E+00  0.000E+00  0.000E+00  0.000E+00  1.19170E+02  1.520E+00  3.631E+00  7.297E-04  1.586E-03 -1.122E-04
   1    4   76     1    76    4.0883E+00  1.4736E-03   4.0869E+00  0.000E+00  0.000E+00  0.000E+00  1.18870E+02  1.520E+00  3.631E+00  7.296E-04  1.581E-03 -1.075E-04
   1    4   77     1    77    4.0869E+00  1.4732E-03   4.0854E+00  0.000E+00  0.000E+00  0.000E+00  1.18570E+02  1.520E+00  3.631E+00  7.295E-04  1.579E-03 -1.058E-04
   1    4   78     1    78    4.0854E+00  1.4728E-03   4.0839E+00  0.000E+00  0.000E+00  0.000E+00  1.18269E+02  1.519E+00  3.630E+00  7.294E-04  1.531E-03 -5.797E-05
   1    4   79     1    79    4.0839E+00  1.4724E-03   4.0825E+00  0.000E+00  0.000E+00  0.000E+00  1.17969E+02  1.519E+00  3.630E+00  7.293E-04  1.531E-03 -5.818E-05
   1    4   80     1    80    4.0825E+00  1.4721E-03   4.0810E+00  0.000E+00  0.000E+00  0.000E+00  1.17669E+02  1.519E+00  3.630E+00  7.292E-04  1.530E-03 -5.835E-05
   1    4   81     1    81    4.0810E+00  1.4717E-03   4.0795E+00  0.000E+00  0.000E+00  0.000E+00  1.17368E+02  1.518E+00  3.629E+00  7.291E-04  1.530E-03 -5.856E-05
   1    4   82     1    82    4.0795E+00  1.4713E-03   4.0780E+00  0.000E+00  0.000E+00  0.000E+00  1.17068E+02  1.518E+00  3.629E+00  7.290E-04  1.526E-03 -5.499E-05
   1    4   83     1    83    4.0780E+00  1.4709E-03   4.0766E+00  0.000E+00  0.000E+00  0.000E+00  1.16768E+02  1.518E+00  3.628E+00  7.289E-04  1.523E-03 -5.166E-05
   1    4   84     1    84    4.0766E+00  1.4705E-03   4.0751E+00  0.000E+00  0.000E+00  0.000E+00  1.16468E+02  1.518E+00  3.628E+00  7.288E-04  1.523E-03 -5.215E-05
   1    4   85     1    85    4.0751E+00  1.4701E-03   4.0736E+00  0.000E+00  0.000E+00  0.000E+00  1.16167E+02  1.517E+00  3.628E+00  7.287E-04  1.513E-03 -4.273E-05
   1    4   86     1    86    4.0736E+00  1.4697E-03   4.0722E+00  0.000E+00  0.000E+00  0.000E+00  1.15867E+02  1.517E+00  3.627E+00  7.287E-04  1.513E-03 -4.331E-05
   1    4   87     1    87    4.0722E+00  1.4693E-03   4.0707E+00  0.000E+00  0.000E+00  0.000E+00  1.15567E+02  1.517E+00  3.627E+00  7.286E-04  1.513E-03 -4.339E-05
   1    4   88     1    88    4.0707E+00  1.4689E-03   4.0692E+00  0.000E+00  0.000E+00  0.000E+00  1.15266E+02  1.516E+00  3.627E+00  7.285E-04  1.513E-03 -4.400E-05
   1    4   89     1    89    4.0692E+00  1.4685E-03   4.0677E+00  0.000E+00  0.000E+00  0.000E+00  1.14966E+02  1.516E+00  3.626E+00  7.284E-04  1.514E-03 -4.534E-05
   1    4   90     1    90    4.0677E+00  1.4681E-03   4.0663E+00  0.000E+00  0.000E+00  0.000E+00  1.14666E+02  1.516E+00  3.626E+00  7.283E-04  1.514E-03 -4.607E-05
   1    4   91     1    91    4.0663E+00  1.4677E-03   4.0648E+00  0.000E+00  0.000E+00  0.000E+00  1.14366E+02  1.516E+00  3.626E+00  7.282E-04  1.515E-03 -4.681E-05
   1    4   92     1    92    4.0648E+00  1.4673E-03   4.0633E+00  0.000E+00  0.000E+00  0.000E+00  1.14065E+02  1.515E+00  3.625E+00  7.281E-04  1.509E-03 -4.193E-05
   1    4   93     1    93    4.0633E+00  1.4669E-03   4.0619E+00  0.000E+00  0.000E+00  0.000E+00  1.13765E+02  1.515E+00  3.625E+00  7.280E-04  1.507E-03 -4.028E-05
   1    4   94     1    94    4.0619E+00  1.4665E-03   4.0604E+00  0.000E+00  0.000E+00  0.000E+00  1.13465E+02  1.515E+00  3.625E+00  7.279E-04  1.507E-03 -4.096E-05
   1    4   95     1    95    4.0604E+00  1.4661E-03   4.0589E+00  0.000E+00  0.000E+00  0.000E+00  1.13164E+02  1.514E+00  3.624E+00  7.278E-04  1.508E-03 -4.153E-05
   1    4   96     1    96    4.0589E+00  1.4658E-03   4.0575E+00  0.000E+00  0.000E+00  0.000E+00  1.12864E+02  1.514E+00  3.624E+00  7.277E-04  1.508E-03 -4.198E-05
   1    4   97     1    97    4.0575E+00  1.4654E-03   4.0560E+00  0.000E+00  0.000E+00  0.000E+00  1.12564E+02  1.514E+00  3.624E+00  7.276E-04  1.508E-03 -4.231E-05
   1    4   98     1    98    4.0560E+00  1.4650E-03   4.0546E+00  0.000E+00  0.000E+00  0.000E+00  1.12264E+02  1.514E+00  3.623E+00  7.275E-04  1.507E-03 -4.252E-05
   1    4   99     1    99    4.0546E+00  1.4646E-03   4.0531E+00  0.000E+00  0.000E+00  0.000E+00  1.11963E+02  1.513E+00  3.623E+00  7.275E-04  1.507E-03 -4.264E-05
   1    4  100     1   100    4.0531E+00  1.4642E-03   4.0516E+00  0.000E+00  0.000E+00  0.000E+00  1.11663E+02  1.513E+00  3.623E+00  7.274E-04  1.507E-03 -4.270E-05



1
  VOLUMETRIC BUDGET FOR UNSATURATED ZONE BENEATH STREAMS AT END OF TIME STEP    30 STRESS PERIOD  48
  ------------------------------------------------------------------------------------------------

    CUMULATIVE VOLUMES             L**3    RATES FOR THIS TIME STEP         L**3/T
    ------------------                     ------------------------


          STREAM LOSS =     35583000.0000            STREAM LOSS =            0.1484
    CHANGE IN STORAGE =      1488047.3750      CHANGE IN STORAGE =        1.5816E-02
       RECHARGE TO GW =     34103060.0000         RECHARGE TO GW =            0.1326

             TOTAL IN =     35583000.0000               TOTAL IN =            0.1484

            TOTAL OUT =     35591108.0000              TOTAL OUT =            0.1484

             IN - OUT =        -8108.0000               IN - OUT =       -8.0168E-06

  PERCENT DISCREPANCY =           -0.01      PERCENT DISCREPANCY =            -0.00



1
  VOLUMETRIC BUDGET FOR ENTIRE MODEL AT END OF TIME STEP   30, STRESS PERIOD  48
  ------------------------------------------------------------------------------

     CUMULATIVE VOLUMES      L**3       RATES FOR THIS TIME STEP      L**3/T
     ------------------                 ------------------------

           IN:                                      IN:
           ---                                      ---
             STORAGE     =   117375280.0000               STORAGE     =           0.2837
       CONSTANT HEAD     =           0.0000         CONSTANT HEAD     =           0.0000
               WELLS     =           0.0000                 WELLS     =           0.0000
     HEAD DEP BOUNDS     =     3729319.0000       HEAD DEP BOUNDS     =       9.7422E-02
      STREAM LEAKAGE     =    34102936.0000        STREAM LEAKAGE     =           0.1326

                TOTAL IN =   155207536.0000                  TOTAL IN =           0.5137

          OUT:                                     OUT:
          ----                                     ----
             STORAGE     =     3105541.7500               STORAGE     =           0.0000
       CONSTANT HEAD     =           0.0000         CONSTANT HEAD     =           0.0000
               WELLS     =   135742656.0000                 WELLS     =           0.5137
     HEAD DEP BOUNDS     =    16359348.0000       HEAD DEP BOUNDS     =           0.0000
      STREAM LEAKAGE     =           0.0000        STREAM LEAKAGE     =           0.0000

               TOTAL OUT =   155207536.0000                 TOTAL OUT =           0.5137

                IN - OUT =           0.0000                  IN - OUT =      -5.9605E-08

     PERCENT DISCREPANCY =           0.00         PERCENT DISCREPANCY =          -0.00






         TIME SUMMARY AT END OF TIME STEP   30 IN STRESS PERIOD   48
                    SECONDS     MINUTES      HOURS       DAYS        YEARS
                    -----------------------------------------------------------
   TIME STEP LENGTH 2.49961E+05  4166.0      69.434      2.8931     7.92080E-03
 STRESS PERIOD TIME 2.59200E+06  43200.      720.00      30.000     8.21355E-02
         TOTAL TIME 1.24416E+08 2.07360E+06  34560.      1440.0      3.9425    
1
1
                            STRESS PERIOD NO.   49, LENGTH =   2592000.    
                            -----------------------------------------------

                              NUMBER OF TIME STEPS =    30

                               MULTIPLIER FOR DELT =     1.100

                            INITIAL TIME STEP SIZE =   15757.40    

 REUSING NON-PARAMETER WELLS FROM LAST STRESS PERIOD

      1 WELL 

 REUSING NON-PARAMETER GHB CELLS FROM LAST STRESS PERIOD

      7 GHB CELLS



 CLASSIFICATION & COUNT OF STREAM SEGMENTS BASED ON SOURCE OF INFLOW:

                HEADWATER     DIVERSION     RECEIVES TRIBUTARY FLOW
                ---------     ---------     -----------------------
                     1              0               0



                    INPUT DATA FOR EACH STREAM SEGMENT
 ---------------------------------------------------------------------------------------------

 SEGMENT    SEG.     INFLOW   OVERLAND   STREAM    STREAM   ICALC  OUTFLOW  DIVERSION PRIORITY
    NO.    LENGTH     RATE     RUNOFF      ET       PPT.    METH.  TO SEG.  FROM SEG.    NO.

      1  2.000E+04 0.000E+00 0.000E+00 0.000E+00 0.000E+00    2        0        0        0


         STREAMBED PROPERTIES AND STREAM DIMENSIONS

 SEGMENT     BED HYD. COND.      BED THICKNESS     ELEV.-TOP OF BED     WIDTH OF STREAM     DEPTH OF STREAM    STREAM ROUGHNESS
    No.     UPPER     LOWER     UPPER     LOWER     UPPER     LOWER     UPPER     LOWER     UPPER     LOWER   CHANNEL      BANK

     1  3.500E-07 3.500E-07                                                                                 3.000E-02 4.000E-02

  EIGHT POINT CROSS-SECTION DATA FOR SEGMENTS WITH ICALC = 2
    X VALUES X VALUES START FROM LEFT SIDE LOOKING DOWNSTREAM

     SEGMENT NO.        X1        X2        X3        X4        X5        X6        X7        X8
            1      0.000E+00 2.000E+00 4.000E+00 6.000E+00 8.000E+00 1.000E+01 1.200E+01 1.400E+01

    Z VALUES ARE RELATIVE TO STREAMBED ELEVATION

     SEGMENT NO.          Z1        Z2        Z3        Z4        Z5        Z6        Z7        Z8
            1      6.000E+00 4.500E+00 3.500E+00 0.000E+00 3.000E-01 3.500E+00 4.500E+00 6.000E+00



 
 SOLVING FOR HEAD 
                                                   Max.-Head-Change                         Max.-Flux-Residual
  Residual-Control   Outer-Iter.   Inner-Iter.     Column Row Layer    Maximum-Head-Change  Column Row Layer    Maximum-Flux-Residual          L2-NORM 
          0                 1           2             1    1     1      -0.4076258251E-02      50    3    1         0.4664131600E-01      0.6036624193E-01
          0                 2           2             2    1     1       0.3975026207E-03      50    3    1        -0.4665220421E-02      0.6445783147E-02
          0                 3           1             2    1     1      -0.3506556512E-04      50    3    1         0.4254624640E-03      0.5814364171E-03
          0                 4           1             2    1     1       0.2764051383E-05      50    3    1        -0.3403861873E-04      0.4660498067E-04
          0                 5           1             2    1     1      -0.1917650507E-06      50    3    1         0.2393140875E-05      0.3277903172E-05

    ------------------------------------------------
       NWT REQUIRED            5 OUTER ITERATIONS 
       AND A TOTAL OF          7 INNER ITERATIONS.
    ------------------------------------------------

 NO OUTPUT CONTROL FOR STRESS PERIOD   49   TIME STEP    1
 
 WELLS WITH REDUCED PUMPING FOR STRESS PERIOD    49 TIME STEP     1
   LAY   ROW   COL         APPL.Q          ACT.Q        GW-HEAD       CELL-BOT
     1     3    50  -0.520086E+00  -0.289494E+00   0.602362E-03   0.000000E+00
     1     5    55  -0.520086E+00  -0.224149E+00   0.503783E-03   0.000000E+00
 
 
 SOLVING FOR HEAD 
                                                   Max.-Head-Change                         Max.-Flux-Residual
  Residual-Control   Outer-Iter.   Inner-Iter.     Column Row Layer    Maximum-Head-Change  Column Row Layer    Maximum-Flux-Residual          L2-NORM 
          0                 1           2             1    1     1      -0.4484571842E-02       1    3    1        -0.8488532570E-03      0.1277198139E-01
          0                 2           2             2    1     1       0.4364358440E-03       1    3    1         0.8488477593E-04      0.1244404472E-02
          0                 3           1             1    1     1      -0.3844525269E-04       1    3    1        -0.7639666258E-05      0.1141670020E-03
          0                 4           1             1    1     1       0.3026502865E-05       1    3    1         0.6119372671E-06      0.9344397911E-05
          0                 5           1             1    1     1      -0.2097472448E-06       1    3    1        -0.4301860557E-07      0.6663385159E-06

    ------------------------------------------------
       NWT REQUIRED            5 OUTER ITERATIONS 
       AND A TOTAL OF          7 INNER ITERATIONS.
    ------------------------------------------------

 NO OUTPUT CONTROL FOR STRESS PERIOD   49   TIME STEP    2
 
 WELLS WITH REDUCED PUMPING FOR STRESS PERIOD    49 TIME STEP     2
   LAY   ROW   COL         APPL.Q          ACT.Q        GW-HEAD       CELL-BOT
     1     3    50  -0.520086E+00  -0.289452E+00   0.602302E-03   0.000000E+00
     1     5    55  -0.520086E+00  -0.224126E+00   0.503750E-03   0.000000E+00
 
 
 SOLVING FOR HEAD 
                                                   Max.-Head-Change                         Max.-Flux-Residual
  Residual-Control   Outer-Iter.   Inner-Iter.     Column Row Layer    Maximum-Head-Change  Column Row Layer    Maximum-Flux-Residual          L2-NORM 
          0                 1           2             1    1     1      -0.4933631235E-02       1    3    1        -0.8500705733E-03      0.1274124599E-01
          0                 2           2             1    1     1       0.4793580083E-03       1    3    1         0.8500637756E-04      0.1240312719E-02
          0                 3           1             1    1     1      -0.4214366245E-04       1    3    1        -0.7650615821E-05      0.1139465876E-03
          0                 4           1             1    1     1       0.3312161709E-05       1    3    1         0.6128142864E-06      0.9351357782E-05
          0                 5           1             1    1     1      -0.2292553258E-06       1    3    1        -0.4308024870E-07      0.6685393011E-06

    ------------------------------------------------
       NWT REQUIRED            5 OUTER ITERATIONS 
       AND A TOTAL OF          7 INNER ITERATIONS.
    ------------------------------------------------

 NO OUTPUT CONTROL FOR STRESS PERIOD   49   TIME STEP    3
 
 WELLS WITH REDUCED PUMPING FOR STRESS PERIOD    49 TIME STEP     3
   LAY   ROW   COL         APPL.Q          ACT.Q        GW-HEAD       CELL-BOT
     1     3    50  -0.519933E+00  -0.289398E+00   0.602347E-03   0.000000E+00
     1     5    55  -0.519933E+00  -0.224093E+00   0.503798E-03   0.000000E+00
 
 
 SOLVING FOR HEAD 
                                                   Max.-Head-Change                         Max.-Flux-Residual
  Residual-Control   Outer-Iter.   Inner-Iter.     Column Row Layer    Maximum-Head-Change  Column Row Layer    Maximum-Flux-Residual          L2-NORM 
          0                 1           2             1    1     1      -0.5426622253E-02       1    3    1        -0.8497636979E-03      0.1273524772E-01
          0                 2           2             1    1     1       0.5260909127E-03       1    3    1         0.8497561188E-04      0.1238777362E-02
          0                 3           1             1    1     1      -0.4615963583E-04       1    3    1        -0.7647852353E-05      0.1139387548E-03
          0                 4           1             1    1     1       0.3621598148E-05       1    3    1         0.6125928849E-06      0.9375136443E-05
          0                 5           1             1    1     1      -0.2503332888E-06      12    4    1         0.4394106412E-07      0.6720199949E-06

    ------------------------------------------------
       NWT REQUIRED            5 OUTER ITERATIONS 
       AND A TOTAL OF          7 INNER ITERATIONS.
    ------------------------------------------------

 NO OUTPUT CONTROL FOR STRESS PERIOD   49   TIME STEP    4
 
 WELLS WITH REDUCED PUMPING FOR STRESS PERIOD    49 TIME STEP     4
   LAY   ROW   COL         APPL.Q          ACT.Q        GW-HEAD       CELL-BOT
     1     3    50  -0.520072E+00  -0.289339E+00   0.602151E-03   0.000000E+00
     1     5    55  -0.520072E+00  -0.224057E+00   0.503660E-03   0.000000E+00
 
 
 SOLVING FOR HEAD 
                                                   Max.-Head-Change                         Max.-Flux-Residual
  Residual-Control   Outer-Iter.   Inner-Iter.     Column Row Layer    Maximum-Head-Change  Column Row Layer    Maximum-Flux-Residual          L2-NORM 
          0                 1           2             1    1     1      -0.5968017110E-02       1    3    1        -0.8493096906E-03      0.1271469501E-01
          0                 2           2             1    1     1       0.5772214158E-03       1    3    1         0.8493014179E-04      0.1237542031E-02
          0                 3           1             1    1     1      -0.5053581437E-04       1    3    1        -0.7643766040E-05      0.1139855716E-03
          0                 4           1             1    1     1       0.3957406013E-05       1    3    1         0.6122655236E-06      0.9403799375E-05
          0                 5           1             1    1     1      -0.2731185752E-06      12    4    1         0.4623113981E-07      0.6759563458E-06

    ------------------------------------------------
       NWT REQUIRED            5 OUTER ITERATIONS 
       AND A TOTAL OF          7 INNER ITERATIONS.
    ------------------------------------------------

 NO OUTPUT CONTROL FOR STRESS PERIOD   49   TIME STEP    5
 
 WELLS WITH REDUCED PUMPING FOR STRESS PERIOD    49 TIME STEP     5
   LAY   ROW   COL         APPL.Q          ACT.Q        GW-HEAD       CELL-BOT
     1     3    50  -0.520036E+00  -0.289284E+00   0.602100E-03   0.000000E+00
     1     5    55  -0.520036E+00  -0.224016E+00   0.503624E-03   0.000000E+00
 
 
 SOLVING FOR HEAD 
                                                   Max.-Head-Change                         Max.-Flux-Residual
  Residual-Control   Outer-Iter.   Inner-Iter.     Column Row Layer    Maximum-Head-Change  Column Row Layer    Maximum-Flux-Residual          L2-NORM 
          0                 1           2             1    1     1      -0.6562682223E-02       1    3    1        -0.8489279567E-03      0.1269293398E-01
          0                 2           2             1    1     1       0.6331766454E-03       1    3    1         0.8489189361E-04      0.1234942243E-02
          0                 3           1             1    1     1      -0.5530528118E-04       1    3    1        -0.7640330356E-05      0.1139078108E-03
          0                 4           1             1    1     1       0.4321811768E-05       1    3    1         0.6119902629E-06      0.9424859698E-05
          0                 5           1             1    1     1      -0.2977394775E-06      12    4    1         0.4843555601E-07      0.6795882855E-06

    ------------------------------------------------
       NWT REQUIRED            5 OUTER ITERATIONS 
       AND A TOTAL OF          7 INNER ITERATIONS.
    ------------------------------------------------

 NO OUTPUT CONTROL FOR STRESS PERIOD   49   TIME STEP    6
 
 WELLS WITH REDUCED PUMPING FOR STRESS PERIOD    49 TIME STEP     6
   LAY   ROW   COL         APPL.Q          ACT.Q        GW-HEAD       CELL-BOT
     1     3    50  -0.519970E+00  -0.289225E+00   0.602067E-03   0.000000E+00
     1     5    55  -0.519970E+00  -0.223971E+00   0.503600E-03   0.000000E+00
 
 
 SOLVING FOR HEAD 
                                                   Max.-Head-Change                         Max.-Flux-Residual
  Residual-Control   Outer-Iter.   Inner-Iter.     Column Row Layer    Maximum-Head-Change  Column Row Layer    Maximum-Flux-Residual          L2-NORM 
          0                 1           2             1    1     1      -0.7216018331E-02       1    3    1        -0.8486157928E-03      0.1268129804E-01
          0                 2           2             1    1     1       0.6944300991E-03       1    3    1         0.8486059429E-04      0.1234008458E-02
          0                 3           1             1    1     1      -0.6050464169E-04       1    3    1        -0.7637520788E-05      0.1139707428E-03
          0                 4           1             1    1     1       0.4717266924E-05       1    5    1         0.6117651541E-06      0.9456409646E-05
          0                 5           1             1    1     1      -0.3243356679E-06      12    4    1         0.5059964359E-07      0.6840235861E-06

    ------------------------------------------------
       NWT REQUIRED            5 OUTER ITERATIONS 
       AND A TOTAL OF          7 INNER ITERATIONS.
    ------------------------------------------------

 NO OUTPUT CONTROL FOR STRESS PERIOD   49   TIME STEP    7
 
 WELLS WITH REDUCED PUMPING FOR STRESS PERIOD    49 TIME STEP     7
   LAY   ROW   COL         APPL.Q          ACT.Q        GW-HEAD       CELL-BOT
     1     3    50  -0.519940E+00  -0.289156E+00   0.601992E-03   0.000000E+00
     1     5    55  -0.519940E+00  -0.223922E+00   0.503547E-03   0.000000E+00
 
 
 SOLVING FOR HEAD 
                                                   Max.-Head-Change                         Max.-Flux-Residual
  Residual-Control   Outer-Iter.   Inner-Iter.     Column Row Layer    Maximum-Head-Change  Column Row Layer    Maximum-Flux-Residual          L2-NORM 
          0                 1           2             1    1     1      -0.7933947093E-02       1    3    1        -0.8483437068E-03      0.1266567018E-01
          0                 2           2             1    1     1       0.7615010033E-03       1    3    1         0.8483329425E-04      0.1232726125E-02
          0                 3           1             1    1     1      -0.6617400252E-04       1    3    1        -0.7635071917E-05      0.1139824882E-03
          0                 4           1             1    1     1       0.5146446014E-05       1    3    1         0.6115689111E-06      0.9483728571E-05
          0                 5           1             1    1     1      -0.3530583633E-06      12    4    1         0.5273071402E-07      0.6882873954E-06

    ------------------------------------------------
       NWT REQUIRED            5 OUTER ITERATIONS 
       AND A TOTAL OF          7 INNER ITERATIONS.
    ------------------------------------------------

 NO OUTPUT CONTROL FOR STRESS PERIOD   49   TIME STEP    8
 
 WELLS WITH REDUCED PUMPING FOR STRESS PERIOD    49 TIME STEP     8
   LAY   ROW   COL         APPL.Q          ACT.Q        GW-HEAD       CELL-BOT
     1     3    50  -0.519954E+00  -0.289080E+00   0.601870E-03   0.000000E+00
     1     5    55  -0.519954E+00  -0.223868E+00   0.503461E-03   0.000000E+00
 
 
 SOLVING FOR HEAD 
                                                   Max.-Head-Change                         Max.-Flux-Residual
  Residual-Control   Outer-Iter.   Inner-Iter.     Column Row Layer    Maximum-Head-Change  Column Row Layer    Maximum-Flux-Residual          L2-NORM 
          0                 1           2             1    1     1      -0.8722939198E-02       1    2    1        -0.8480941213E-03      0.1263686196E-01
          0                 2           2             1    1     1       0.8349571163E-03       1    2    1         0.8480885015E-04      0.1229422159E-02
          0                 3           1             1    1     1      -0.7235721748E-04       1    2    1        -0.7632849718E-05      0.1138414074E-03
          0                 4           1             1    1     1       0.5612263036E-05      12    4    1        -0.6202858014E-06      0.9501668379E-05
          0                 5           1             1    1     1      -0.3840706578E-06      12    4    1         0.5483465948E-07      0.6921000580E-06

    ------------------------------------------------
       NWT REQUIRED            5 OUTER ITERATIONS 
       AND A TOTAL OF          7 INNER ITERATIONS.
    ------------------------------------------------

 NO OUTPUT CONTROL FOR STRESS PERIOD   49   TIME STEP    9
 
 WELLS WITH REDUCED PUMPING FOR STRESS PERIOD    49 TIME STEP     9
   LAY   ROW   COL         APPL.Q          ACT.Q        GW-HEAD       CELL-BOT
     1     3    50  -0.519978E+00  -0.288995E+00   0.601729E-03   0.000000E+00
     1     5    55  -0.519978E+00  -0.223810E+00   0.503362E-03   0.000000E+00
 
 
 SOLVING FOR HEAD 
                                                   Max.-Head-Change                         Max.-Flux-Residual
  Residual-Control   Outer-Iter.   Inner-Iter.     Column Row Layer    Maximum-Head-Change  Column Row Layer    Maximum-Flux-Residual          L2-NORM 
          0                 1           2             1    1     1      -0.9590070866E-02       1    1    1        -0.8478627640E-03      0.1262595543E-01
          0                 2           2             1    1     1       0.9154201113E-03       1    1    1         0.8478588246E-04      0.1228783395E-02
          0                 3           1             1    1     1      -0.7910234634E-04       1    1    1        -0.7630771092E-05      0.1138886593E-03
          0                 4           1             1    1     1       0.6117901382E-05      12    4    1        -0.6378921302E-06      0.9530873868E-05
          0                 5           1             1    1     1      -0.4175495717E-06      12    4    1         0.5690082361E-07      0.6966641885E-06

    ------------------------------------------------
       NWT REQUIRED            5 OUTER ITERATIONS 
       AND A TOTAL OF          7 INNER ITERATIONS.
    ------------------------------------------------

 NO OUTPUT CONTROL FOR STRESS PERIOD   49   TIME STEP   10
 
 WELLS WITH REDUCED PUMPING FOR STRESS PERIOD    49 TIME STEP    10
   LAY   ROW   COL         APPL.Q          ACT.Q        GW-HEAD       CELL-BOT
     1     3    50  -0.519956E+00  -0.288903E+00   0.601614E-03   0.000000E+00
     1     5    55  -0.519956E+00  -0.223746E+00   0.503285E-03   0.000000E+00
 
 
 SOLVING FOR HEAD 
                                                   Max.-Head-Change                         Max.-Flux-Residual
  Residual-Control   Outer-Iter.   Inner-Iter.     Column Row Layer    Maximum-Head-Change  Column Row Layer    Maximum-Flux-Residual          L2-NORM 
          0                 1           2             1    1     1      -0.1054308474E-01       1    1    1        -0.8476137503E-03      0.1259214866E-01
          0                 2           2             1    1     1       0.1003571348E-02       1    1    1         0.8476091006E-04      0.1224833272E-02
          0                 3           1             1    1     1      -0.8646214719E-04       1    1    1        -0.7628530790E-05      0.1136879577E-03
          0                 4           1             1    1     1       0.6666846379E-05      12    4    1        -0.6548830971E-06      0.9544971839E-05
          0                 5           1             1    1     1      -0.4536878905E-06      12    4    1         0.5892067634E-07      0.7004303285E-06

    ------------------------------------------------
       NWT REQUIRED            5 OUTER ITERATIONS 
       AND A TOTAL OF          7 INNER ITERATIONS.
    ------------------------------------------------

 NO OUTPUT CONTROL FOR STRESS PERIOD   49   TIME STEP   11
 
 WELLS WITH REDUCED PUMPING FOR STRESS PERIOD    49 TIME STEP    11
   LAY   ROW   COL         APPL.Q          ACT.Q        GW-HEAD       CELL-BOT
     1     3    50  -0.520017E+00  -0.288802E+00   0.601419E-03   0.000000E+00
     1     5    55  -0.520017E+00  -0.223677E+00   0.503148E-03   0.000000E+00
 
 
 SOLVING FOR HEAD 
                                                   Max.-Head-Change                         Max.-Flux-Residual
  Residual-Control   Outer-Iter.   Inner-Iter.     Column Row Layer    Maximum-Head-Change  Column Row Layer    Maximum-Flux-Residual          L2-NORM 
          0                 1           2             1    1     1      -0.1159046422E-01       1    1    1        -0.8473410434E-03      0.1258866322E-01
          0                 2           2             1    1     1       0.1100158867E-02       1    1    1         0.8473355815E-04      0.1224996385E-02
          0                 3           1             1    1     1      -0.9449466127E-04       1    1    1        -0.7626077359E-05      0.1138104833E-03
          0                 4           1             1    1     1       0.7262915931E-05      12    4    1        -0.6676723636E-06      0.9579970795E-05
          0                 5           1             1    1     1      -0.4926949340E-06      12    4    1         0.6071141989E-07      0.7054888027E-06

    ------------------------------------------------
       NWT REQUIRED            5 OUTER ITERATIONS 
       AND A TOTAL OF          7 INNER ITERATIONS.
    ------------------------------------------------

 NO OUTPUT CONTROL FOR STRESS PERIOD   49   TIME STEP   12
 
 WELLS WITH REDUCED PUMPING FOR STRESS PERIOD    49 TIME STEP    12
   LAY   ROW   COL         APPL.Q          ACT.Q        GW-HEAD       CELL-BOT
     1     3    50  -0.520026E+00  -0.288693E+00   0.601253E-03   0.000000E+00
     1     5    55  -0.520026E+00  -0.223602E+00   0.503035E-03   0.000000E+00
 
 
 SOLVING FOR HEAD 
                                                   Max.-Head-Change                         Max.-Flux-Residual
  Residual-Control   Outer-Iter.   Inner-Iter.     Column Row Layer    Maximum-Head-Change  Column Row Layer    Maximum-Flux-Residual          L2-NORM 
          0                 1           2             1    1     1      -0.1274150890E-01       1    1    1        -0.8470440410E-03      0.1254951035E-01
          0                 2           2             1    1     1       0.1206004444E-02       1    1    1         0.8470376516E-04      0.1220977376E-02
          0                 3           1             1    1     1      -0.1032638097E-03       1    1    1        -0.7623405374E-05      0.1135735783E-03
          0                 4           1             1    1     1       0.7910301373E-05      13    4    1        -0.6802020351E-06      0.9588805880E-05
          0                 5           1             1    1     1      -0.5347987713E-06      13    4    1         0.6210413872E-07      0.7089236701E-06

    ------------------------------------------------
       NWT REQUIRED            5 OUTER ITERATIONS 
       AND A TOTAL OF          7 INNER ITERATIONS.
    ------------------------------------------------

 NO OUTPUT CONTROL FOR STRESS PERIOD   49   TIME STEP   13
 
 WELLS WITH REDUCED PUMPING FOR STRESS PERIOD    49 TIME STEP    13
   LAY   ROW   COL         APPL.Q          ACT.Q        GW-HEAD       CELL-BOT
     1     3    50  -0.520026E+00  -0.288573E+00   0.601080E-03   0.000000E+00
     1     5    55  -0.520026E+00  -0.223521E+00   0.502918E-03   0.000000E+00
 
 
 SOLVING FOR HEAD 
                                                   Max.-Head-Change                         Max.-Flux-Residual
  Residual-Control   Outer-Iter.   Inner-Iter.     Column Row Layer    Maximum-Head-Change  Column Row Layer    Maximum-Flux-Residual          L2-NORM 
          0                 1           2             1    1     1      -0.1400641508E-01       1    1    1        -0.8467208055E-03      0.1254344089E-01
          0                 2           2             1    1     1       0.1322011055E-02       1    1    1         0.8467133595E-04      0.1220473798E-02
          0                 3           2             1    1     1      -0.1128431366E-03       1    1    1        -0.7620497385E-05      0.1136137972E-03
          0                 4           1             1    1     1       0.8616927547E-05      13    4    1        -0.6961941050E-06      0.9619123314E-05
          0                 5           1             1    1     1      -0.5804593839E-06      13    4    1         0.6410662401E-07      0.7136282926E-06

    ------------------------------------------------
       NWT REQUIRED            5 OUTER ITERATIONS 
       AND A TOTAL OF          8 INNER ITERATIONS.
    ------------------------------------------------

 NO OUTPUT CONTROL FOR STRESS PERIOD   49   TIME STEP   14
 
 WELLS WITH REDUCED PUMPING FOR STRESS PERIOD    49 TIME STEP    14
   LAY   ROW   COL         APPL.Q          ACT.Q        GW-HEAD       CELL-BOT
     1     3    50  -0.520011E+00  -0.288446E+00   0.600910E-03   0.000000E+00
     1     5    55  -0.520011E+00  -0.223433E+00   0.502802E-03   0.000000E+00
 
 
 SOLVING FOR HEAD 
                                                   Max.-Head-Change                         Max.-Flux-Residual
  Residual-Control   Outer-Iter.   Inner-Iter.     Column Row Layer    Maximum-Head-Change  Column Row Layer    Maximum-Flux-Residual          L2-NORM 
          0                 1           2             1    1     1      -0.1539636191E-01       1    1    1        -0.8463686171E-03      0.1251852132E-01
          0                 2           2             1    1     1       0.1449170815E-02       1    1    1         0.8463599706E-04      0.1217596957E-02
          0                 3           2             1    1     1      -0.1233058453E-03       1    1    1        -0.7617328913E-05      0.1134405164E-03
          0                 4           1             1    1     1       0.9383185834E-05      13    4    1        -0.7109924116E-06      0.9631407724E-05
          0                 5           1             1    1     1      -0.6296433273E-06      13    4    1         0.6592521906E-07      0.7172030471E-06

    ------------------------------------------------
       NWT REQUIRED            5 OUTER ITERATIONS 
       AND A TOTAL OF          8 INNER ITERATIONS.
    ------------------------------------------------

 NO OUTPUT CONTROL FOR STRESS PERIOD   49   TIME STEP   15
 
 WELLS WITH REDUCED PUMPING FOR STRESS PERIOD    49 TIME STEP    15
   LAY   ROW   COL         APPL.Q          ACT.Q        GW-HEAD       CELL-BOT
     1     3    50  -0.520011E+00  -0.288330E+00   0.600742E-03   0.000000E+00
     1     5    55  -0.520011E+00  -0.223360E+00   0.502697E-03   0.000000E+00
 
 
 SOLVING FOR HEAD 
                                                   Max.-Head-Change                         Max.-Flux-Residual
  Residual-Control   Outer-Iter.   Inner-Iter.     Column Row Layer    Maximum-Head-Change  Column Row Layer    Maximum-Flux-Residual          L2-NORM 
          0                 1           2             1    1     1      -0.1692360429E-01       1    1    1        -0.8459842520E-03      0.1248961043E-01
          0                 2           2             1    1     1       0.1588573456E-02       1    1    1         0.8459742453E-04      0.1214993193E-02
          0                 3           2             1    1     1      -0.1347395375E-03       1    1    1        -0.7613870935E-05      0.1133247171E-03
          0                 4           1             1    1     1       0.1021692623E-04      13    4    1        -0.7244908691E-06      0.9648803545E-05
          0                 5           1             1    1     1      -0.6827826546E-06      13    4    1         0.6762097193E-07      0.7210664088E-06

    ------------------------------------------------
       NWT REQUIRED            5 OUTER ITERATIONS 
       AND A TOTAL OF          8 INNER ITERATIONS.
    ------------------------------------------------

 NO OUTPUT CONTROL FOR STRESS PERIOD   49   TIME STEP   16
 
 WELLS WITH REDUCED PUMPING FOR STRESS PERIOD    49 TIME STEP    16
   LAY   ROW   COL         APPL.Q          ACT.Q        GW-HEAD       CELL-BOT
     1     3    50  -0.520011E+00  -0.288203E+00   0.600559E-03   0.000000E+00
     1     5    55  -0.520011E+00  -0.223283E+00   0.502586E-03   0.000000E+00
 
 
 SOLVING FOR HEAD 
                                                   Max.-Head-Change                         Max.-Flux-Residual
  Residual-Control   Outer-Iter.   Inner-Iter.     Column Row Layer    Maximum-Head-Change  Column Row Layer    Maximum-Flux-Residual          L2-NORM 
          0                 1           2             1    1     1      -0.1860157318E-01       1    1    1        -0.8455641080E-03      0.1246778622E-01
          0                 2           2             1    1     1       0.1741415446E-02       1    1    1         0.8455525636E-04      0.1213022254E-02
          0                 3           2             1    1     1      -0.1472385659E-03       1    1    1        -0.7610091032E-05      0.1132551765E-03
          0                 4           1             1    1     1       0.1112456957E-04      13    4    1        -0.7372632389E-06      0.9668681522E-05
          0                 5           1             1    1     1      -0.7401973138E-06      13    4    1         0.6923924545E-07      0.7249560292E-06

    ------------------------------------------------
       NWT REQUIRED            5 OUTER ITERATIONS 
       AND A TOTAL OF          8 INNER ITERATIONS.
    ------------------------------------------------

 NO OUTPUT CONTROL FOR STRESS PERIOD   49   TIME STEP   17
 
 WELLS WITH REDUCED PUMPING FOR STRESS PERIOD    49 TIME STEP    17
   LAY   ROW   COL         APPL.Q          ACT.Q        GW-HEAD       CELL-BOT
     1     3    50  -0.520022E+00  -0.288060E+00   0.600343E-03   0.000000E+00
     1     5    55  -0.520022E+00  -0.223195E+00   0.502453E-03   0.000000E+00
 
 
 SOLVING FOR HEAD 
                                                   Max.-Head-Change                         Max.-Flux-Residual
  Residual-Control   Outer-Iter.   Inner-Iter.     Column Row Layer    Maximum-Head-Change  Column Row Layer    Maximum-Flux-Residual          L2-NORM 
          0                 1           2             1    1     1      -0.2044498009E-01       1    1    1        -0.8451042394E-03      0.1243761616E-01
          0                 2           2             1    1     1       0.1909009401E-02       1    1    1         0.8450909604E-04      0.1209842422E-02
          0                 3           2             1    1     1      -0.1609067081E-03       1    1    1        -0.7605953659E-05      0.1130596531E-03
          0                 4           1             1    1     1       0.1211318641E-04      13    4    1        -0.7493082634E-06      0.9677722917E-05
          0                 5           1             1    1     1      -0.8022215863E-06      13    4    1         0.7077703046E-07      0.7279765562E-06

    ------------------------------------------------
       NWT REQUIRED            5 OUTER ITERATIONS 
       AND A TOTAL OF          8 INNER ITERATIONS.
    ------------------------------------------------

 NO OUTPUT CONTROL FOR STRESS PERIOD   49   TIME STEP   18
 
 WELLS WITH REDUCED PUMPING FOR STRESS PERIOD    49 TIME STEP    18
   LAY   ROW   COL         APPL.Q          ACT.Q        GW-HEAD       CELL-BOT
     1     3    50  -0.520017E+00  -0.287900E+00   0.600116E-03   0.000000E+00
     1     5    55  -0.520017E+00  -0.223096E+00   0.502315E-03   0.000000E+00
 
 
 SOLVING FOR HEAD 
                                                   Max.-Head-Change                         Max.-Flux-Residual
  Residual-Control   Outer-Iter.   Inner-Iter.     Column Row Layer    Maximum-Head-Change  Column Row Layer    Maximum-Flux-Residual          L2-NORM 
          0                 1           2             1    1     1      -0.2246993412E-01       1    1    1        -0.8446003517E-03      0.1243391042E-01
          0                 2           2             1    1     1       0.2092794601E-02       1    1    1         0.8445851202E-04      0.1209034781E-02
          0                 3           2             1    1     1      -0.1758580144E-03       1    1    1        -0.7601420171E-05      0.1130114827E-03
          0                 4           1             1    1     1       0.1319054561E-04      14    4    1        -0.7520943832E-06      0.9693371955E-05
          0                 5           1             1    1     1      -0.8691934611E-06      14    4    1         0.7138762825E-07      0.7310479392E-06

    ------------------------------------------------
       NWT REQUIRED            5 OUTER ITERATIONS 
       AND A TOTAL OF          8 INNER ITERATIONS.
    ------------------------------------------------

 NO OUTPUT CONTROL FOR STRESS PERIOD   49   TIME STEP   19
 
 WELLS WITH REDUCED PUMPING FOR STRESS PERIOD    49 TIME STEP    19
   LAY   ROW   COL         APPL.Q          ACT.Q        GW-HEAD       CELL-BOT
     1     3    50  -0.519989E+00  -0.287731E+00   0.599895E-03   0.000000E+00
     1     5    55  -0.519989E+00  -0.222997E+00   0.502189E-03   0.000000E+00
 
 
 SOLVING FOR HEAD 
                                                   Max.-Head-Change                         Max.-Flux-Residual
  Residual-Control   Outer-Iter.   Inner-Iter.     Column Row Layer    Maximum-Head-Change  Column Row Layer    Maximum-Flux-Residual          L2-NORM 
          0                 1           2             1    1     1      -0.2469406674E-01       1    1    1        -0.8440477758E-03      0.1241151869E-01
          0                 2           2             1    1     1       0.2294348094E-02       1    1    1         0.8440303498E-04      0.1206329352E-02
          0                 3           2             1    1     1      -0.1922176955E-03       1    1    1        -0.7596448512E-05      0.1128259235E-03
          0                 4           1             1    1     1       0.1436516315E-04      14    4    1        -0.7648742617E-06      0.9699468145E-05
          0                 5           1             1    1     1      -0.9414428939E-06      14    4    1         0.7306124239E-07      0.7332604419E-06

    ------------------------------------------------
       NWT REQUIRED            5 OUTER ITERATIONS 
       AND A TOTAL OF          8 INNER ITERATIONS.
    ------------------------------------------------

 NO OUTPUT CONTROL FOR STRESS PERIOD   49   TIME STEP   20
 
 WELLS WITH REDUCED PUMPING FOR STRESS PERIOD    49 TIME STEP    20
   LAY   ROW   COL         APPL.Q          ACT.Q        GW-HEAD       CELL-BOT
     1     3    50  -0.519984E+00  -0.287658E+00   0.599793E-03   0.000000E+00
     1     5    55  -0.519984E+00  -0.223045E+00   0.502262E-03   0.000000E+00
 
 
 SOLVING FOR HEAD 
                                                   Max.-Head-Change                         Max.-Flux-Residual
  Residual-Control   Outer-Iter.   Inner-Iter.     Column Row Layer    Maximum-Head-Change  Column Row Layer    Maximum-Flux-Residual          L2-NORM 
          0                 1           2             1    1     1      -0.2713666442E-01       1    1    1        -0.8434414311E-03      0.1237777445E-01
          0                 2           2             1    1     1       0.2515396451E-02       1    1    1         0.8434215423E-04      0.1203156771E-02
          0                 3           2             1    1     1      -0.2101230488E-03       1    1    1        -0.7590992922E-05      0.1126081518E-03
          0                 4           1             1    1     1       0.1564634282E-04      14    4    1        -0.7752647022E-06      0.9702887658E-05
          0                 5           1             1    1     1      -0.1019269712E-05      14    4    1         0.7441513716E-07      0.7350140547E-06
          0                 6           1             1    1     1       0.5746687002E-07      14    4    1        -0.5502668543E-08      0.4766290660E-07

    ------------------------------------------------
       NWT REQUIRED            6 OUTER ITERATIONS 
       AND A TOTAL OF          9 INNER ITERATIONS.
    ------------------------------------------------

 NO OUTPUT CONTROL FOR STRESS PERIOD   49   TIME STEP   21
 
 WELLS WITH REDUCED PUMPING FOR STRESS PERIOD    49 TIME STEP    21
   LAY   ROW   COL         APPL.Q          ACT.Q        GW-HEAD       CELL-BOT
     1     3    50  -0.520000E+00  -0.287637E+00   0.599750E-03   0.000000E+00
     1     5    55  -0.520000E+00  -0.223065E+00   0.502280E-03   0.000000E+00
 
 
 SOLVING FOR HEAD 
                                                   Max.-Head-Change                         Max.-Flux-Residual
  Residual-Control   Outer-Iter.   Inner-Iter.     Column Row Layer    Maximum-Head-Change  Column Row Layer    Maximum-Flux-Residual          L2-NORM 
          0                 1           2             1    1     1      -0.2981881846E-01       1    7    1        -0.8427765661E-03      0.1236759776E-01
          0                 2           2             1    1     1       0.2757829118E-02       1    7    1         0.8427539141E-04      0.1201824385E-02
          0                 3           2             1    1     1      -0.2297245348E-03       1    7    1        -0.7585010580E-05      0.1125482998E-03
          0                 4           1             1    1     1       0.1704422202E-04      14    4    1        -0.7843944196E-06      0.9718165097E-05
          0                 5           1             1    1     1      -0.1102914990E-05      14    4    1         0.7563194337E-07      0.7371617174E-06
          0                 6           1             1    1     1       0.6173603901E-07      14    4    1        -0.5611546783E-08      0.4789130387E-07

    ------------------------------------------------
       NWT REQUIRED            6 OUTER ITERATIONS 
       AND A TOTAL OF          9 INNER ITERATIONS.
    ------------------------------------------------

 NO OUTPUT CONTROL FOR STRESS PERIOD   49   TIME STEP   22
 
 WELLS WITH REDUCED PUMPING FOR STRESS PERIOD    49 TIME STEP    22
   LAY   ROW   COL         APPL.Q          ACT.Q        GW-HEAD       CELL-BOT
     1     3    50  -0.519996E+00  -0.287545E+00   0.599621E-03   0.000000E+00
     1     5    55  -0.519996E+00  -0.223054E+00   0.502267E-03   0.000000E+00
 
 
 SOLVING FOR HEAD 
                                                   Max.-Head-Change                         Max.-Flux-Residual
  Residual-Control   Outer-Iter.   Inner-Iter.     Column Row Layer    Maximum-Head-Change  Column Row Layer    Maximum-Flux-Residual          L2-NORM 
          0                 1           2             1    1     1      -0.3276354548E-01       1    7    1        -0.8420458792E-03      0.1234538377E-01
          0                 2           2             1    1     1       0.3023707971E-02       1    7    1         0.8420201339E-04      0.1199754840E-02
          0                 3           2             1    1     1      -0.2511864114E-03       1    7    1        -0.7578435741E-05      0.1124183334E-03
          0                 4           1             1    1     1       0.1856977230E-04      14    4    1        -0.7869651455E-06      0.9725814322E-05
          0                 5           1             1    1     1      -0.1192521688E-05      14    4    1         0.7641343203E-07      0.7382025802E-06
          0                 6           1             1    1     1       0.6620922648E-07      14    4    1        -0.5692914584E-08      0.4801678164E-07

    ------------------------------------------------
       NWT REQUIRED            6 OUTER ITERATIONS 
       AND A TOTAL OF          9 INNER ITERATIONS.
    ------------------------------------------------

 NO OUTPUT CONTROL FOR STRESS PERIOD   49   TIME STEP   23
 
 WELLS WITH REDUCED PUMPING FOR STRESS PERIOD    49 TIME STEP    23
   LAY   ROW   COL         APPL.Q          ACT.Q        GW-HEAD       CELL-BOT
     1     3    50  -0.520009E+00  -0.287420E+00   0.599431E-03   0.000000E+00
     1     5    55  -0.520009E+00  -0.223005E+00   0.502189E-03   0.000000E+00
 
 
 SOLVING FOR HEAD 
                                                   Max.-Head-Change                         Max.-Flux-Residual
  Residual-Control   Outer-Iter.   Inner-Iter.     Column Row Layer    Maximum-Head-Change  Column Row Layer    Maximum-Flux-Residual          L2-NORM 
          0                 1           2             1    1     1      -0.3599599461E-01       1    7    1        -0.8412431236E-03      0.1239363511E-01
          0                 2           2             1    1     1       0.3315286103E-02       1    7    1         0.8412139167E-04      0.1200675692E-02
          0                 3           2             1    1     1      -0.2746883070E-03       1    7    1        -0.7571212098E-05      0.1123616978E-03
          0                 4           1             1    1     1       0.2023485380E-04      15    4    1        -0.7927828847E-06      0.9729603707E-05
          0                 5           1             1    1     1      -0.1288078154E-05      15    4    1         0.7671918034E-07      0.7379719342E-06
          0                 6           1             1    1     1       0.7084748075E-07      15    4    1        -0.5675120818E-08      0.4801389145E-07

    ------------------------------------------------
       NWT REQUIRED            6 OUTER ITERATIONS 
       AND A TOTAL OF          9 INNER ITERATIONS.
    ------------------------------------------------

 NO OUTPUT CONTROL FOR STRESS PERIOD   49   TIME STEP   24
 
 WELLS WITH REDUCED PUMPING FOR STRESS PERIOD    49 TIME STEP    24
   LAY   ROW   COL         APPL.Q          ACT.Q        GW-HEAD       CELL-BOT
     1     3    50  -0.519998E+00  -0.287489E+00   0.599539E-03   0.000000E+00
     1     5    55  -0.519998E+00  -0.223192E+00   0.502464E-03   0.000000E+00
 
 
 SOLVING FOR HEAD 
                                                   Max.-Head-Change                         Max.-Flux-Residual
  Residual-Control   Outer-Iter.   Inner-Iter.     Column Row Layer    Maximum-Head-Change  Column Row Layer    Maximum-Flux-Residual          L2-NORM 
          0                 1           2             1    1     1      -0.3954359000E-01       1    7    1        -0.8403613012E-03      0.1235914841E-01
          0                 2           2             1    1     1       0.3635018924E-02       1    1    1         0.8403282228E-04      0.1198902408E-02
          0                 3           2             1    1     1      -0.3004258702E-03       1    7    1        -0.7563276600E-05      0.1122732376E-03
          0                 4           1             1    1     1       0.2205217620E-04      15    4    1        -0.8007643046E-06      0.9737913059E-05
          0                 5           1             1    1     1      -0.1389344020E-05      15    4    1         0.7770696442E-07      0.7376106206E-06
          0                 6           1             1    1     1       0.7559062680E-07      15    4    1        -0.5740691478E-08      0.4796318705E-07

    ------------------------------------------------
       NWT REQUIRED            6 OUTER ITERATIONS 
       AND A TOTAL OF          9 INNER ITERATIONS.
    ------------------------------------------------

 NO OUTPUT CONTROL FOR STRESS PERIOD   49   TIME STEP   25
 
 WELLS WITH REDUCED PUMPING FOR STRESS PERIOD    49 TIME STEP    25
   LAY   ROW   COL         APPL.Q          ACT.Q        GW-HEAD       CELL-BOT
     1     3    50  -0.520006E+00  -0.287488E+00   0.599531E-03   0.000000E+00
     1     5    55  -0.520006E+00  -0.223273E+00   0.502575E-03   0.000000E+00
 
 
 SOLVING FOR HEAD 
                                                   Max.-Head-Change                         Max.-Flux-Residual
  Residual-Control   Outer-Iter.   Inner-Iter.     Column Row Layer    Maximum-Head-Change  Column Row Layer    Maximum-Flux-Residual          L2-NORM 
          0                 1           2             2    1     1      -0.4359462542E-01       1    7    1        -0.8393926696E-03      0.1239607216E-01
          0                 2           2             2    1     1       0.4007310689E-02       1    1    1         0.8393730972E-04      0.1199243970E-02
          0                 3           2             2    1     1      -0.3309442585E-03       1    7    1        -0.7554699841E-05      0.1119938235E-03
          0                 4           1             1    1     1       0.2424015283E-04      18    4    1        -0.7798907955E-06      0.9707509422E-05
          0                 5           1             1    1     1      -0.1511185470E-05      15    4    1         0.7656043621E-07      0.7326931438E-06
          0                 6           1             1    1     1       0.8123871283E-07      15    4    1        -0.5679863690E-08      0.4755644527E-07

    ------------------------------------------------
       NWT REQUIRED            6 OUTER ITERATIONS 
       AND A TOTAL OF          9 INNER ITERATIONS.
    ------------------------------------------------

 NO OUTPUT CONTROL FOR STRESS PERIOD   49   TIME STEP   26
 
 WELLS WITH REDUCED PUMPING FOR STRESS PERIOD    49 TIME STEP    26
   LAY   ROW   COL         APPL.Q          ACT.Q        GW-HEAD       CELL-BOT
     1     3    50  -0.520003E+00  -0.287363E+00   0.599352E-03   0.000000E+00
     1     5    55  -0.520003E+00  -0.223263E+00   0.502563E-03   0.000000E+00
 
 
 SOLVING FOR HEAD 
                                                   Max.-Head-Change                         Max.-Flux-Residual
  Residual-Control   Outer-Iter.   Inner-Iter.     Column Row Layer    Maximum-Head-Change  Column Row Layer    Maximum-Flux-Residual          L2-NORM 
          0                 1           3             1    4     1      -0.4973159394E-01       3    5    1        -0.8427778253E-03      0.1261143082E-01
          0                 2           2             3    1     1       0.4501240735E-02       3    5    1         0.8428972629E-04      0.1206023111E-02
          0                 3           2             4    1     1      -0.3711978367E-03       3    5    1        -0.7586473155E-05      0.1114944874E-03
          0                 4           1             5    1     1       0.2711029615E-04      16    4    1        -0.7167051077E-06      0.9621854185E-05
          0                 5           1             4    1     1      -0.1662971048E-05      16    4    1         0.7365018817E-07      0.7222967641E-06
          0                 6           1             1    1     1       0.8740465633E-07      16    4    1        -0.5619497756E-08      0.4678644546E-07

    ------------------------------------------------
       NWT REQUIRED            6 OUTER ITERATIONS 
       AND A TOTAL OF         10 INNER ITERATIONS.
    ------------------------------------------------

 NO OUTPUT CONTROL FOR STRESS PERIOD   49   TIME STEP   27
 
 WELLS WITH REDUCED PUMPING FOR STRESS PERIOD    49 TIME STEP    27
   LAY   ROW   COL         APPL.Q          ACT.Q        GW-HEAD       CELL-BOT
     1     3    50  -0.520001E+00  -0.287182E+00   0.599094E-03   0.000000E+00
     1     5    55  -0.520001E+00  -0.223217E+00   0.502498E-03   0.000000E+00
 
 
 SOLVING FOR HEAD 
                                                   Max.-Head-Change                         Max.-Flux-Residual
  Residual-Control   Outer-Iter.   Inner-Iter.     Column Row Layer    Maximum-Head-Change  Column Row Layer    Maximum-Flux-Residual          L2-NORM 
          0                 1           3             3    4     1      -0.5714257384E-01       1    5    1        -0.8693138362E-03      0.1301948973E-01
          0                 2           2             1    1     1       0.5135854896E-02       1    5    1         0.8695320606E-04      0.1233768020E-02
          0                 3           2             1    1     1      -0.4228219858E-03       1    5    1        -0.7826200676E-05      0.1129967389E-03
          0                 4           1             1    1     1       0.3077878559E-04      16    4    1        -0.6882486723E-06      0.9702277275E-05
          0                 5           1             3    1     1      -0.1860566783E-05      16    4    1         0.7285403569E-07      0.7224868596E-06
          0                 6           1             1    1     1       0.9632304221E-07      16    4    1        -0.5628324473E-08      0.4660255353E-07

    ------------------------------------------------
       NWT REQUIRED            6 OUTER ITERATIONS 
       AND A TOTAL OF         10 INNER ITERATIONS.
    ------------------------------------------------

 NO OUTPUT CONTROL FOR STRESS PERIOD   49   TIME STEP   28
 
 WELLS WITH REDUCED PUMPING FOR STRESS PERIOD    49 TIME STEP    28
   LAY   ROW   COL         APPL.Q          ACT.Q        GW-HEAD       CELL-BOT
     1     3    50  -0.519991E+00  -0.286963E+00   0.598786E-03   0.000000E+00
     1     5    55  -0.519991E+00  -0.223148E+00   0.502405E-03   0.000000E+00
 
 
 SOLVING FOR HEAD 
                                                   Max.-Head-Change                         Max.-Flux-Residual
  Residual-Control   Outer-Iter.   Inner-Iter.     Column Row Layer    Maximum-Head-Change  Column Row Layer    Maximum-Flux-Residual          L2-NORM 
          0                 1           3             4    4     1      -0.6275881091E-01       2    3    1        -0.9048860232E-03      0.1333753107E-01
          0                 2           2             2    1     1       0.5760414177E-02       2    3    1         0.9048713045E-04      0.1272427784E-02
          0                 3           2             2    1     1      -0.4761382060E-03       3    5    1        -0.8143090698E-05      0.1167561033E-03
          0                 4           1             3    1     1       0.3474591506E-04      19    4    1        -0.7546367868E-06      0.1001599913E-04
          0                 5           1             3    1     1      -0.2069575516E-05      16    4    1         0.7617024522E-07      0.7378595457E-06
          0                 6           1             1    1     1       0.1052675950E-06      16    4    1        -0.5799192238E-08      0.4721747046E-07

    ------------------------------------------------
       NWT REQUIRED            6 OUTER ITERATIONS 
       AND A TOTAL OF         10 INNER ITERATIONS.
    ------------------------------------------------

 NO OUTPUT CONTROL FOR STRESS PERIOD   49   TIME STEP   29
 
 WELLS WITH REDUCED PUMPING FOR STRESS PERIOD    49 TIME STEP    29
   LAY   ROW   COL         APPL.Q          ACT.Q        GW-HEAD       CELL-BOT
     1     3    50  -0.520005E+00  -0.286710E+00   0.598408E-03   0.000000E+00
     1     5    55  -0.520005E+00  -0.223062E+00   0.502272E-03   0.000000E+00
 
 
 SOLVING FOR HEAD 
                                                   Max.-Head-Change                         Max.-Flux-Residual
  Residual-Control   Outer-Iter.   Inner-Iter.     Column Row Layer    Maximum-Head-Change  Column Row Layer    Maximum-Flux-Residual          L2-NORM 
          0                 1           3             1    4     1      -0.7202178540E-01       2    3    1        -0.9103485208E-03      0.1377237119E-01
          0                 2           2             1    1     1       0.6525072976E-02       2    3    1         0.9106021989E-04      0.1304153828E-02
          0                 3           2             1    1     1      -0.5379706430E-03       4    3    1        -0.8201400728E-05      0.1186931618E-03
          0                 4           1             1    1     1       0.3908634183E-04      17    4    1        -0.6615454371E-06      0.1013210466E-04
          0                 5           1             1    1     1      -0.2269492607E-05      17    4    1         0.7254215184E-07      0.7374634814E-06
          0                 6           1             1    1     1       0.1120107496E-06      17    4    1        -0.5456277208E-08      0.4688100889E-07

    ------------------------------------------------
       NWT REQUIRED            6 OUTER ITERATIONS 
       AND A TOTAL OF         10 INNER ITERATIONS.
    ------------------------------------------------

 NO OUTPUT CONTROL FOR STRESS PERIOD   49   TIME STEP   30
 
 WELLS WITH REDUCED PUMPING FOR STRESS PERIOD    49 TIME STEP    30
   LAY   ROW   COL         APPL.Q          ACT.Q        GW-HEAD       CELL-BOT
     1     3    50  -0.520176E+00  -0.286420E+00   0.597855E-03   0.000000E+00
     1     5    55  -0.520176E+00  -0.222959E+00   0.502019E-03   0.000000E+00
 



 STREAM LISTING     PERIOD     49   STEP       30

 LAYER ROW COL. STREAM  RCH.   FLOW INTO    STREAM     FLOW OUT OF   OVRLND.    DIRECT     STREAM      STREAM      STREAM     STREAM  STREAMBED   FLOW TO   CHNG. UNSAT. 
                SEG.NO.  NO.   STRM. RCH.    LOSS       STRM. RCH.   RUNOFF     PRECIP       ET         HEAD        DEPTH      WIDTH  CONDCTNC.   WAT. TAB.

   1    4    1     1     1    0.0000E+00  0.0000E+00   0.0000E+00  0.000E+00  0.000E+00  0.000E+00  1.39850E+02  0.000E+00  6.000E+00  8.400E-04  8.036E-04 -8.036E-04
   1    4    2     1     2    0.0000E+00  0.0000E+00   0.0000E+00  0.000E+00  0.000E+00  0.000E+00  1.39550E+02  0.000E+00  6.000E+00  8.400E-04  8.033E-04 -8.033E-04
   1    4    3     1     3    0.0000E+00  0.0000E+00   0.0000E+00  0.000E+00  0.000E+00  0.000E+00  1.39250E+02  0.000E+00  6.000E+00  8.400E-04  8.030E-04 -8.030E-04
   1    4    4     1     4    0.0000E+00  0.0000E+00   0.0000E+00  0.000E+00  0.000E+00  0.000E+00  1.38950E+02  0.000E+00  6.000E+00  8.400E-04  8.027E-04 -8.027E-04
   1    4    5     1     5    0.0000E+00  0.0000E+00   0.0000E+00  0.000E+00  0.000E+00  0.000E+00  1.38650E+02  0.000E+00  6.000E+00  8.400E-04  8.025E-04 -8.025E-04
   1    4    6     1     6    0.0000E+00  0.0000E+00   0.0000E+00  0.000E+00  0.000E+00  0.000E+00  1.38350E+02  0.000E+00  6.000E+00  8.400E-04  8.022E-04 -8.022E-04
   1    4    7     1     7    0.0000E+00  0.0000E+00   0.0000E+00  0.000E+00  0.000E+00  0.000E+00  1.38050E+02  0.000E+00  6.000E+00  8.400E-04  8.020E-04 -8.020E-04
   1    4    8     1     8    0.0000E+00  0.0000E+00   0.0000E+00  0.000E+00  0.000E+00  0.000E+00  1.37750E+02  0.000E+00  6.000E+00  8.400E-04  8.018E-04 -8.018E-04
   1    4    9     1     9    0.0000E+00  0.0000E+00   0.0000E+00  0.000E+00  0.000E+00  0.000E+00  1.37450E+02  0.000E+00  6.000E+00  8.400E-04  8.016E-04 -8.016E-04
   1    4   10     1    10    0.0000E+00  0.0000E+00   0.0000E+00  0.000E+00  0.000E+00  0.000E+00  1.37150E+02  0.000E+00  6.000E+00  8.400E-04  8.014E-04 -8.014E-04
   1    4   11     1    11    0.0000E+00  0.0000E+00   0.0000E+00  0.000E+00  0.000E+00  0.000E+00  1.36850E+02  0.000E+00  6.000E+00  8.400E-04  8.012E-04 -8.012E-04
   1    4   12     1    12    0.0000E+00  0.0000E+00   0.0000E+00  0.000E+00  0.000E+00  0.000E+00  1.36550E+02  0.000E+00  6.000E+00  8.400E-04  8.010E-04 -8.010E-04
   1    4   13     1    13    0.0000E+00  0.0000E+00   0.0000E+00  0.000E+00  0.000E+00  0.000E+00  1.36250E+02  0.000E+00  6.000E+00  8.400E-04  8.009E-04 -8.009E-04
   1    4   14     1    14    0.0000E+00  0.0000E+00   0.0000E+00  0.000E+00  0.000E+00  0.000E+00  1.35950E+02  0.000E+00  6.000E+00  8.400E-04  8.008E-04 -8.008E-04
   1    4   15     1    15    0.0000E+00  0.0000E+00   0.0000E+00  0.000E+00  0.000E+00  0.000E+00  1.35650E+02  0.000E+00  6.000E+00  8.400E-04  8.006E-04 -8.006E-04
   1    4   16     1    16    0.0000E+00  0.0000E+00   0.0000E+00  0.000E+00  0.000E+00  0.000E+00  1.35350E+02  0.000E+00  6.000E+00  8.400E-04  8.043E-04 -8.043E-04
   1    4   17     1    17    0.0000E+00  0.0000E+00   0.0000E+00  0.000E+00  0.000E+00  0.000E+00  1.35050E+02  0.000E+00  6.000E+00  8.400E-04  8.061E-04 -8.061E-04
   1    4   18     1    18    0.0000E+00  0.0000E+00   0.0000E+00  0.000E+00  0.000E+00  0.000E+00  1.34750E+02  0.000E+00  6.000E+00  8.400E-04  8.061E-04 -8.061E-04
   1    4   19     1    19    0.0000E+00  0.0000E+00   0.0000E+00  0.000E+00  0.000E+00  0.000E+00  1.34450E+02  0.000E+00  6.000E+00  8.400E-04  8.195E-04 -8.195E-04
   1    4   20     1    20    0.0000E+00  0.0000E+00   0.0000E+00  0.000E+00  0.000E+00  0.000E+00  1.34150E+02  0.000E+00  6.000E+00  8.400E-04  8.392E-04 -8.392E-04
   1    4   21     1    21    0.0000E+00  0.0000E+00   0.0000E+00  0.000E+00  0.000E+00  0.000E+00  1.33850E+02  0.000E+00  6.000E+00  8.400E-04  8.609E-04 -8.609E-04
   1    4   22     1    22    0.0000E+00  0.0000E+00   0.0000E+00  0.000E+00  0.000E+00  0.000E+00  1.33550E+02  0.000E+00  6.000E+00  8.400E-04  8.846E-04 -8.846E-04
   1    4   23     1    23    0.0000E+00  0.0000E+00   0.0000E+00  0.000E+00  0.000E+00  0.000E+00  1.33250E+02  0.000E+00  6.000E+00  8.400E-04  9.105E-04 -9.105E-04
   1    4   24     1    24    0.0000E+00  0.0000E+00   0.0000E+00  0.000E+00  0.000E+00  0.000E+00  1.32950E+02  0.000E+00  6.000E+00  8.400E-04  9.384E-04 -9.384E-04
   1    4   25     1    25    0.0000E+00  0.0000E+00   0.0000E+00  0.000E+00  0.000E+00  0.000E+00  1.32650E+02  0.000E+00  6.000E+00  8.400E-04  9.686E-04 -9.686E-04
   1    4   26     1    26    0.0000E+00  0.0000E+00   0.0000E+00  0.000E+00  0.000E+00  0.000E+00  1.32350E+02  0.000E+00  6.000E+00  8.400E-04  1.001E-03 -1.001E-03
   1    4   27     1    27    0.0000E+00  0.0000E+00   0.0000E+00  0.000E+00  0.000E+00  0.000E+00  1.32050E+02  0.000E+00  6.000E+00  8.400E-04  1.036E-03 -1.036E-03
   1    4   28     1    28    0.0000E+00  0.0000E+00   0.0000E+00  0.000E+00  0.000E+00  0.000E+00  1.31750E+02  0.000E+00  6.000E+00  8.400E-04  1.073E-03 -1.073E-03
   1    4   29     1    29    0.0000E+00  0.0000E+00   0.0000E+00  0.000E+00  0.000E+00  0.000E+00  1.31450E+02  0.000E+00  6.000E+00  8.400E-04  1.083E-03 -1.083E-03
   1    4   30     1    30    0.0000E+00  0.0000E+00   0.0000E+00  0.000E+00  0.000E+00  0.000E+00  1.31150E+02  0.000E+00  6.000E+00  8.400E-04  1.093E-03 -1.093E-03
   1    4   31     1    31    0.0000E+00  0.0000E+00   0.0000E+00  0.000E+00  0.000E+00  0.000E+00  1.30850E+02  0.000E+00  6.000E+00  8.400E-04  1.109E-03 -1.109E-03
   1    4   32     1    32    0.0000E+00  0.0000E+00   0.0000E+00  0.000E+00  0.000E+00  0.000E+00  1.30550E+02  0.000E+00  6.000E+00  8.400E-04  1.142E-03 -1.142E-03
   1    4   33     1    33    0.0000E+00  0.0000E+00   0.0000E+00  0.000E+00  0.000E+00  0.000E+00  1.30250E+02  0.000E+00  6.000E+00  8.400E-04  1.142E-03 -1.142E-03
   1    4   34     1    34    0.0000E+00  0.0000E+00   0.0000E+00  0.000E+00  0.000E+00  0.000E+00  1.29950E+02  0.000E+00  6.000E+00  8.400E-04  1.170E-03 -1.170E-03
   1    4   35     1    35    0.0000E+00  0.0000E+00   0.0000E+00  0.000E+00  0.000E+00  0.000E+00  1.29650E+02  0.000E+00  6.000E+00  8.400E-04  1.214E-03 -1.214E-03
   1    4   36     1    36    0.0000E+00  0.0000E+00   0.0000E+00  0.000E+00  0.000E+00  0.000E+00  1.29350E+02  0.000E+00  6.000E+00  8.400E-04  1.260E-03 -1.260E-03
   1    4   37     1    37    0.0000E+00  0.0000E+00   0.0000E+00  0.000E+00  0.000E+00  0.000E+00  1.29050E+02  0.000E+00  6.000E+00  8.400E-04  1.310E-03 -1.310E-03
   1    4   38     1    38    0.0000E+00  0.0000E+00   0.0000E+00  0.000E+00  0.000E+00  0.000E+00  1.28750E+02  0.000E+00  6.000E+00  8.400E-04  1.367E-03 -1.367E-03
   1    4   39     1    39    0.0000E+00  0.0000E+00   0.0000E+00  0.000E+00  0.000E+00  0.000E+00  1.28450E+02  0.000E+00  6.000E+00  8.400E-04  1.402E-03 -1.402E-03
   1    4   40     1    40    0.0000E+00  0.0000E+00   0.0000E+00  0.000E+00  0.000E+00  0.000E+00  1.28150E+02  0.000E+00  6.000E+00  8.400E-04  1.428E-03 -1.428E-03
   1    4   41     1    41    0.0000E+00  0.0000E+00   0.0000E+00  0.000E+00  0.000E+00  0.000E+00  1.27850E+02  0.000E+00  6.000E+00  8.400E-04  1.473E-03 -1.473E-03
   1    4   42     1    42    0.0000E+00  0.0000E+00   0.0000E+00  0.000E+00  0.000E+00  0.000E+00  1.27550E+02  0.000E+00  6.000E+00  8.400E-04  1.521E-03 -1.520E-03
   1    4   43     1    43    0.0000E+00  0.0000E+00   0.0000E+00  0.000E+00  0.000E+00  0.000E+00  1.27250E+02  0.000E+00  6.000E+00  8.400E-04  1.580E-03 -1.577E-03
   1    4   44     1    44    0.0000E+00  0.0000E+00   0.0000E+00  0.000E+00  0.000E+00  0.000E+00  1.26950E+02  0.000E+00  6.000E+00  8.400E-04  1.601E-03 -1.597E-03
   1    4   45     1    45    0.0000E+00  0.0000E+00   0.0000E+00  0.000E+00  0.000E+00  0.000E+00  1.26650E+02  0.000E+00  6.000E+00  8.400E-04  1.603E-03 -1.597E-03
   1    4   46     1    46    0.0000E+00  0.0000E+00   0.0000E+00  0.000E+00  0.000E+00  0.000E+00  1.26350E+02  0.000E+00  6.000E+00  8.400E-04  1.605E-03 -1.599E-03
   1    4   47     1    47    0.0000E+00  0.0000E+00   0.0000E+00  0.000E+00  0.000E+00  0.000E+00  1.26050E+02  0.000E+00  6.000E+00  8.400E-04  1.608E-03 -1.602E-03
   1    4   48     1    48    0.0000E+00  0.0000E+00   0.0000E+00  0.000E+00  0.000E+00  0.000E+00  1.25750E+02  0.000E+00  6.000E+00  8.400E-04  1.611E-03 -1.604E-03
   1    4   49     1    49    0.0000E+00  0.0000E+00   0.0000E+00  0.000E+00  0.000E+00  0.000E+00  1.25450E+02  0.000E+00  6.000E+00  8.400E-04  1.614E-03 -1.608E-03
   1    4   50     1    50    0.0000E+00  0.0000E+00   0.0000E+00  0.000E+00  0.000E+00  0.000E+00  1.25150E+02  0.000E+00  6.000E+00  8.400E-04  1.619E-03 -1.613E-03
   1    4   51     1    51    0.0000E+00  0.0000E+00   0.0000E+00  0.000E+00  0.000E+00  0.000E+00  1.24850E+02  0.000E+00  6.000E+00  8.400E-04  1.619E-03 -1.613E-03
   1    4   52     1    52    0.0000E+00  0.0000E+00   0.0000E+00  0.000E+00  0.000E+00  0.000E+00  1.24550E+02  0.000E+00  6.000E+00  8.400E-04  1.620E-03 -1.614E-03
   1    4   53     1    53    0.0000E+00  0.0000E+00   0.0000E+00  0.000E+00  0.000E+00  0.000E+00  1.24250E+02  0.000E+00  6.000E+00  8.400E-04  1.619E-03 -1.613E-03
   1    4   54     1    54    0.0000E+00  0.0000E+00   0.0000E+00  0.000E+00  0.000E+00  0.000E+00  1.23950E+02  0.000E+00  6.000E+00  8.400E-04  1.619E-03 -1.613E-03
   1    4   55     1    55    0.0000E+00  0.0000E+00   0.0000E+00  0.000E+00  0.000E+00  0.000E+00  1.23650E+02  0.000E+00  6.000E+00  8.400E-04  1.617E-03 -1.611E-03
   1    4   56     1    56    0.0000E+00  0.0000E+00   0.0000E+00  0.000E+00  0.000E+00  0.000E+00  1.23350E+02  0.000E+00  6.000E+00  8.400E-04  1.614E-03 -1.608E-03
   1    4   57     1    57    0.0000E+00  0.0000E+00   0.0000E+00  0.000E+00  0.000E+00  0.000E+00  1.23050E+02  0.000E+00  6.000E+00  8.400E-04  1.611E-03 -1.605E-03
   1    4   58     1    58    0.0000E+00  0.0000E+00   0.0000E+00  0.000E+00  0.000E+00  0.000E+00  1.22750E+02  0.000E+00  6.000E+00  8.400E-04  1.609E-03 -1.603E-03
   1    4   59     1    59    0.0000E+00  0.0000E+00   0.0000E+00  0.000E+00  0.000E+00  0.000E+00  1.22450E+02  0.000E+00  6.000E+00  8.400E-04  1.606E-03 -1.600E-03
   1    4   60     1    60    0.0000E+00  0.0000E+00   0.0000E+00  0.000E+00  0.000E+00  0.000E+00  1.22150E+02  0.000E+00  6.000E+00  8.400E-04  1.604E-03 -1.598E-03
   1    4   61     1    61    0.0000E+00  0.0000E+00   0.0000E+00  0.000E+00  0.000E+00  0.000E+00  1.21850E+02  0.000E+00  6.000E+00  8.400E-04  1.602E-03 -1.598E-03
   1    4   62     1    62    0.0000E+00  0.0000E+00   0.0000E+00  0.000E+00  0.000E+00  0.000E+00  1.21550E+02  0.000E+00  6.000E+00  8.400E-04  1.578E-03 -1.576E-03
   1    4   63     1    63    0.0000E+00  0.0000E+00   0.0000E+00  0.000E+00  0.000E+00  0.000E+00  1.21250E+02  0.000E+00  6.000E+00  8.400E-04  1.521E-03 -1.520E-03
   1    4   64     1    64    0.0000E+00  0.0000E+00   0.0000E+00  0.000E+00  0.000E+00  0.000E+00  1.20950E+02  0.000E+00  6.000E+00  8.400E-04  1.467E-03 -1.467E-03
   1    4   65     1    65    0.0000E+00  0.0000E+00   0.0000E+00  0.000E+00  0.000E+00  0.000E+00  1.20650E+02  0.000E+00  6.000E+00  8.400E-04  1.415E-03 -1.415E-03
   1    4   66     1    66    0.0000E+00  0.0000E+00   0.0000E+00  0.000E+00  0.000E+00  0.000E+00  1.20350E+02  0.000E+00  6.000E+00  8.400E-04  1.392E-03 -1.392E-03
   1    4   67     1    67    0.0000E+00  0.0000E+00   0.0000E+00  0.000E+00  0.000E+00  0.000E+00  1.20050E+02  0.000E+00  6.000E+00  8.400E-04  1.325E-03 -1.325E-03
   1    4   68     1    68    0.0000E+00  0.0000E+00   0.0000E+00  0.000E+00  0.000E+00  0.000E+00  1.19750E+02  0.000E+00  6.000E+00  8.400E-04  1.261E-03 -1.261E-03
   1    4   69     1    69    0.0000E+00  0.0000E+00   0.0000E+00  0.000E+00  0.000E+00  0.000E+00  1.19450E+02  0.000E+00  6.000E+00  8.400E-04  1.199E-03 -1.199E-03
   1    4   70     1    70    0.0000E+00  0.0000E+00   0.0000E+00  0.000E+00  0.000E+00  0.000E+00  1.19150E+02  0.000E+00  6.000E+00  8.400E-04  1.154E-03 -1.154E-03
   1    4   71     1    71    0.0000E+00  0.0000E+00   0.0000E+00  0.000E+00  0.000E+00  0.000E+00  1.18850E+02  0.000E+00  6.000E+00  8.400E-04  1.146E-03 -1.146E-03
   1    4   72     1    72    0.0000E+00  0.0000E+00   0.0000E+00  0.000E+00  0.000E+00  0.000E+00  1.18550E+02  0.000E+00  6.000E+00  8.400E-04  1.109E-03 -1.109E-03
   1    4   73     1    73    0.0000E+00  0.0000E+00   0.0000E+00  0.000E+00  0.000E+00  0.000E+00  1.18250E+02  0.000E+00  6.000E+00  8.400E-04  1.093E-03 -1.093E-03
   1    4   74     1    74    0.0000E+00  0.0000E+00   0.0000E+00  0.000E+00  0.000E+00  0.000E+00  1.17950E+02  0.000E+00  6.000E+00  8.400E-04  1.026E-03 -1.026E-03
   1    4   75     1    75    0.0000E+00  0.0000E+00   0.0000E+00  0.000E+00  0.000E+00  0.000E+00  1.17650E+02  0.000E+00  6.000E+00  8.400E-04  9.603E-04 -9.603E-04
   1    4   76     1    76    0.0000E+00  0.0000E+00   0.0000E+00  0.000E+00  0.000E+00  0.000E+00  1.17350E+02  0.000E+00  6.000E+00  8.400E-04  8.972E-04 -8.972E-04
   1    4   77     1    77    0.0000E+00  0.0000E+00   0.0000E+00  0.000E+00  0.000E+00  0.000E+00  1.17050E+02  0.000E+00  6.000E+00  8.400E-04  8.361E-04 -8.361E-04
   1    4   78     1    78    0.0000E+00  0.0000E+00   0.0000E+00  0.000E+00  0.000E+00  0.000E+00  1.16750E+02  0.000E+00  6.000E+00  8.400E-04  8.239E-04 -8.239E-04
   1    4   79     1    79    0.0000E+00  0.0000E+00   0.0000E+00  0.000E+00  0.000E+00  0.000E+00  1.16450E+02  0.000E+00  6.000E+00  8.400E-04  8.240E-04 -8.240E-04
   1    4   80     1    80    0.0000E+00  0.0000E+00   0.0000E+00  0.000E+00  0.000E+00  0.000E+00  1.16150E+02  0.000E+00  6.000E+00  8.400E-04  8.174E-04 -8.174E-04
   1    4   81     1    81    0.0000E+00  0.0000E+00   0.0000E+00  0.000E+00  0.000E+00  0.000E+00  1.15850E+02  0.000E+00  6.000E+00  8.400E-04  8.161E-04 -8.161E-04
   1    4   82     1    82    0.0000E+00  0.0000E+00   0.0000E+00  0.000E+00  0.000E+00  0.000E+00  1.15550E+02  0.000E+00  6.000E+00  8.400E-04  8.163E-04 -8.163E-04
   1    4   83     1    83    0.0000E+00  0.0000E+00   0.0000E+00  0.000E+00  0.000E+00  0.000E+00  1.15250E+02  0.000E+00  6.000E+00  8.400E-04  8.069E-04 -8.069E-04
   1    4   84     1    84    0.0000E+00  0.0000E+00   0.0000E+00  0.000E+00  0.000E+00  0.000E+00  1.14950E+02  0.000E+00  6.000E+00  8.400E-04  7.916E-04 -7.916E-04
   1    4   85     1    85    0.0000E+00  0.0000E+00   0.0000E+00  0.000E+00  0.000E+00  0.000E+00  1.14650E+02  0.000E+00  6.000E+00  8.400E-04  7.307E-04 -7.307E-04
   1    4   86     1    86    0.0000E+00  0.0000E+00   0.0000E+00  0.000E+00  0.000E+00  0.000E+00  1.14350E+02  0.000E+00  6.000E+00  8.400E-04  6.713E-04 -6.713E-04
   1    4   87     1    87    0.0000E+00  0.0000E+00   0.0000E+00  0.000E+00  0.000E+00  0.000E+00  1.14050E+02  0.000E+00  6.000E+00  8.400E-04  6.133E-04 -6.133E-04
   1    4   88     1    88    0.0000E+00  0.0000E+00   0.0000E+00  0.000E+00  0.000E+00  0.000E+00  1.13750E+02  0.000E+00  6.000E+00  8.400E-04  5.566E-04 -5.566E-04
   1    4   89     1    89    0.0000E+00  0.0000E+00   0.0000E+00  0.000E+00  0.000E+00  0.000E+00  1.13450E+02  0.000E+00  6.000E+00  8.400E-04  5.447E-04 -5.447E-04
   1    4   90     1    90    0.0000E+00  0.0000E+00   0.0000E+00  0.000E+00  0.000E+00  0.000E+00  1.13150E+02  0.000E+00  6.000E+00  8.400E-04  5.452E-04 -5.452E-04
   1    4   91     1    91    0.0000E+00  0.0000E+00   0.0000E+00  0.000E+00  0.000E+00  0.000E+00  1.12850E+02  0.000E+00  6.000E+00  8.400E-04  5.458E-04 -5.458E-04
   1    4   92     1    92    0.0000E+00  0.0000E+00   0.0000E+00  0.000E+00  0.000E+00  0.000E+00  1.12550E+02  0.000E+00  6.000E+00  8.400E-04  5.464E-04 -5.464E-04
   1    4   93     1    93    0.0000E+00  0.0000E+00   0.0000E+00  0.000E+00  0.000E+00  0.000E+00  1.12250E+02  0.000E+00  6.000E+00  8.400E-04  5.448E-04 -5.448E-04
   1    4   94     1    94    0.0000E+00  0.0000E+00   0.0000E+00  0.000E+00  0.000E+00  0.000E+00  1.11950E+02  0.000E+00  6.000E+00  8.400E-04  5.401E-04 -5.401E-04
   1    4   95     1    95    0.0000E+00  0.0000E+00   0.0000E+00  0.000E+00  0.000E+00  0.000E+00  1.11650E+02  0.000E+00  6.000E+00  8.400E-04  5.409E-04 -5.409E-04
   1    4   96     1    96    0.0000E+00  0.0000E+00   0.0000E+00  0.000E+00  0.000E+00  0.000E+00  1.11350E+02  0.000E+00  6.000E+00  8.400E-04  5.419E-04 -5.419E-04
   1    4   97     1    97    0.0000E+00  0.0000E+00   0.0000E+00  0.000E+00  0.000E+00  0.000E+00  1.11050E+02  0.000E+00  6.000E+00  8.400E-04  5.431E-04 -5.431E-04
   1    4   98     1    98    0.0000E+00  0.0000E+00   0.0000E+00  0.000E+00  0.000E+00  0.000E+00  1.10750E+02  0.000E+00  6.000E+00  8.400E-04  5.444E-04 -5.444E-04
   1    4   99     1    99    0.0000E+00  0.0000E+00   0.0000E+00  0.000E+00  0.000E+00  0.000E+00  1.10450E+02  0.000E+00  6.000E+00  8.400E-04  5.309E-04 -5.309E-04
   1    4  100     1   100    0.0000E+00  0.0000E+00   0.0000E+00  0.000E+00  0.000E+00  0.000E+00  1.10150E+02  0.000E+00  6.000E+00  8.400E-04  4.771E-04 -4.771E-04



1
  VOLUMETRIC BUDGET FOR UNSATURATED ZONE BENEATH STREAMS AT END OF TIME STEP    30 STRESS PERIOD  49
  ------------------------------------------------------------------------------------------------

    CUMULATIVE VOLUMES             L**3    RATES FOR THIS TIME STEP         L**3/T
    ------------------                     ------------------------


          STREAM LOSS =     35583000.0000            STREAM LOSS =            0.0000
    CHANGE IN STORAGE =      1132349.1250      CHANGE IN STORAGE =           -0.1061
       RECHARGE TO GW =     34460260.0000         RECHARGE TO GW =            0.1062

             TOTAL IN =     35583000.0000               TOTAL IN =            0.1061

            TOTAL OUT =     35592608.0000              TOTAL OUT =            0.1062

             IN - OUT =        -9608.0000               IN - OUT =       -1.1460E-04

  PERCENT DISCREPANCY =           -0.01      PERCENT DISCREPANCY =            -0.03



1
  VOLUMETRIC BUDGET FOR ENTIRE MODEL AT END OF TIME STEP   30, STRESS PERIOD  49
  ------------------------------------------------------------------------------

     CUMULATIVE VOLUMES      L**3       RATES FOR THIS TIME STEP      L**3/T
     ------------------                 ------------------------

           IN:                                      IN:
           ---                                      ---
             STORAGE     =   118086032.0000               STORAGE     =           0.3013
       CONSTANT HEAD     =           0.0000         CONSTANT HEAD     =           0.0000
               WELLS     =           0.0000                 WELLS     =           0.0000
     HEAD DEP BOUNDS     =     3986264.5000       HEAD DEP BOUNDS     =           0.1019
      STREAM LEAKAGE     =    34459752.0000        STREAM LEAKAGE     =           0.1062

                TOTAL IN =   156532048.0000                  TOTAL IN =           0.5094

          OUT:                                     OUT:
          ----                                     ----
             STORAGE     =     3106051.0000               STORAGE     =           0.0000
       CONSTANT HEAD     =           0.0000         CONSTANT HEAD     =           0.0000
               WELLS     =   137066688.0000                 WELLS     =           0.5094
     HEAD DEP BOUNDS     =    16359348.0000       HEAD DEP BOUNDS     =           0.0000
      STREAM LEAKAGE     =           0.0000        STREAM LEAKAGE     =           0.0000

               TOTAL OUT =   156532080.0000                 TOTAL OUT =           0.5094

                IN - OUT =         -32.0000                  IN - OUT =      -5.9605E-08

     PERCENT DISCREPANCY =          -0.00         PERCENT DISCREPANCY =          -0.00






         TIME SUMMARY AT END OF TIME STEP   30 IN STRESS PERIOD   49
                    SECONDS     MINUTES      HOURS       DAYS        YEARS
                    -----------------------------------------------------------
   TIME STEP LENGTH 2.49961E+05  4166.0      69.434      2.8931     7.92080E-03
 STRESS PERIOD TIME 2.59200E+06  43200.      720.00      30.000     8.21355E-02
         TOTAL TIME 1.27008E+08 2.11680E+06  35280.      1470.0      4.0246    
1
1
                            STRESS PERIOD NO.   50, LENGTH =   2592000.    
                            -----------------------------------------------

                              NUMBER OF TIME STEPS =    30

                               MULTIPLIER FOR DELT =     1.100

                            INITIAL TIME STEP SIZE =   15757.40    

 REUSING NON-PARAMETER WELLS FROM LAST STRESS PERIOD

      1 WELL 

 REUSING NON-PARAMETER GHB CELLS FROM LAST STRESS PERIOD

      7 GHB CELLS



 CLASSIFICATION & COUNT OF STREAM SEGMENTS BASED ON SOURCE OF INFLOW:

                HEADWATER     DIVERSION     RECEIVES TRIBUTARY FLOW
                ---------     ---------     -----------------------
                     1              0               0



                    INPUT DATA FOR EACH STREAM SEGMENT
 ---------------------------------------------------------------------------------------------

 SEGMENT    SEG.     INFLOW   OVERLAND   STREAM    STREAM   ICALC  OUTFLOW  DIVERSION PRIORITY
    NO.    LENGTH     RATE     RUNOFF      ET       PPT.    METH.  TO SEG.  FROM SEG.    NO.

      1  2.000E+04 9.000E-01 0.000E+00 0.000E+00 0.000E+00    2        0        0        0


         STREAMBED PROPERTIES AND STREAM DIMENSIONS

 SEGMENT     BED HYD. COND.      BED THICKNESS     ELEV.-TOP OF BED     WIDTH OF STREAM     DEPTH OF STREAM    STREAM ROUGHNESS
    No.     UPPER     LOWER     UPPER     LOWER     UPPER     LOWER     UPPER     LOWER     UPPER     LOWER   CHANNEL      BANK

     1  3.500E-07 3.500E-07                                                                                 3.000E-02 4.000E-02

  EIGHT POINT CROSS-SECTION DATA FOR SEGMENTS WITH ICALC = 2
    X VALUES X VALUES START FROM LEFT SIDE LOOKING DOWNSTREAM

     SEGMENT NO.        X1        X2        X3        X4        X5        X6        X7        X8
            1      0.000E+00 2.000E+00 4.000E+00 6.000E+00 8.000E+00 1.000E+01 1.200E+01 1.400E+01

    Z VALUES ARE RELATIVE TO STREAMBED ELEVATION

     SEGMENT NO.          Z1        Z2        Z3        Z4        Z5        Z6        Z7        Z8
            1      6.000E+00 4.500E+00 3.500E+00 0.000E+00 3.000E-01 3.500E+00 4.500E+00 6.000E+00



 
 SOLVING FOR HEAD 
                                                   Max.-Head-Change                         Max.-Flux-Residual
  Residual-Control   Outer-Iter.   Inner-Iter.     Column Row Layer    Maximum-Head-Change  Column Row Layer    Maximum-Flux-Residual          L2-NORM 
          0                 1           2             1    2     1      -0.4505623265E-02      50    3    1        -0.1926991745E+00      0.2445997603E+00
          0                 2           2             1    1     1       0.4400293555E-03      50    3    1         0.1640668191E-01      0.1801958288E-01
          0                 3           1             1    1     1      -0.3884633512E-04      50    3    1        -0.1616711645E-02      0.1767423872E-02
          0                 4           1             1    1     1       0.3061352329E-05      50    3    1         0.1282998898E-03      0.1403365167E-03
          0                 5           1             1    1     1      -0.2122456811E-06      50    3    1        -0.9026849325E-05      0.9874094313E-05

    ------------------------------------------------
       NWT REQUIRED            5 OUTER ITERATIONS 
       AND A TOTAL OF          7 INNER ITERATIONS.
    ------------------------------------------------

 NO OUTPUT CONTROL FOR STRESS PERIOD   50   TIME STEP    1
 
 WELLS WITH REDUCED PUMPING FOR STRESS PERIOD    50 TIME STEP     1
   LAY   ROW   COL         APPL.Q          ACT.Q        GW-HEAD       CELL-BOT
     1     3    50  -0.870143E+00  -0.286424E+00   0.430117E-03   0.000000E+00
     1     5    55  -0.870143E+00  -0.222968E+00   0.367484E-03   0.000000E+00
 
 
 SOLVING FOR HEAD 
                                                   Max.-Head-Change                         Max.-Flux-Residual
  Residual-Control   Outer-Iter.   Inner-Iter.     Column Row Layer    Maximum-Head-Change  Column Row Layer    Maximum-Flux-Residual          L2-NORM 
          0                 1           2             1    1     1      -0.4957829430E-02       1    3    1        -0.9433701176E-03      0.1398467248E-01
          0                 2           2             1    1     1       0.4837430909E-03       1    3    1         0.9433627164E-04      0.1352560951E-02
          0                 3           1             1    1     1      -0.4264166395E-04       1    3    1        -0.8490309877E-05      0.1232284340E-03
          0                 4           1             1    1     1       0.3356196242E-05       1    3    1         0.6800737218E-06      0.1008085501E-04
          0                 5           1             1    1     1      -0.2324519564E-06       1    3    1        -0.4780852336E-07      0.7210681774E-06

    ------------------------------------------------
       NWT REQUIRED            5 OUTER ITERATIONS 
       AND A TOTAL OF          7 INNER ITERATIONS.
    ------------------------------------------------

 NO OUTPUT CONTROL FOR STRESS PERIOD   50   TIME STEP    2
 
 WELLS WITH REDUCED PUMPING FOR STRESS PERIOD    50 TIME STEP     2
   LAY   ROW   COL         APPL.Q          ACT.Q        GW-HEAD       CELL-BOT
     1     3    50  -0.870143E+00  -0.286386E+00   0.430083E-03   0.000000E+00
     1     5    55  -0.870143E+00  -0.222948E+00   0.367466E-03   0.000000E+00
 
 
 SOLVING FOR HEAD 
                                                   Max.-Head-Change                         Max.-Flux-Residual
  Residual-Control   Outer-Iter.   Inner-Iter.     Column Row Layer    Maximum-Head-Change  Column Row Layer    Maximum-Flux-Residual          L2-NORM 
          0                 1           2             1    1     1      -0.5457218002E-02       1    3    1        -0.9421131183E-03      0.1401011593E-01
          0                 2           2             1    1     1       0.5315034101E-03       1    3    1         0.9421051557E-04      0.1356490194E-02
          0                 3           1             1    1     1      -0.4677440601E-04       1    3    1        -0.8478997284E-05      0.1237019635E-03
          0                 4           1             1    1     1       0.3676203735E-05       1    3    1         0.6791675311E-06      0.1013838158E-04
          0                 5           1             1    1     1      -0.2543167218E-06       1    3    1        -0.4774481965E-07      0.7267546783E-06

    ------------------------------------------------
       NWT REQUIRED            5 OUTER ITERATIONS 
       AND A TOTAL OF          7 INNER ITERATIONS.
    ------------------------------------------------

 NO OUTPUT CONTROL FOR STRESS PERIOD   50   TIME STEP    3
 
 WELLS WITH REDUCED PUMPING FOR STRESS PERIOD    50 TIME STEP     3
   LAY   ROW   COL         APPL.Q          ACT.Q        GW-HEAD       CELL-BOT
     1     3    50  -0.869888E+00  -0.286364E+00   0.430139E-03   0.000000E+00
     1     5    55  -0.869888E+00  -0.222940E+00   0.367521E-03   0.000000E+00
 
 
 SOLVING FOR HEAD 
                                                   Max.-Head-Change                         Max.-Flux-Residual
  Residual-Control   Outer-Iter.   Inner-Iter.     Column Row Layer    Maximum-Head-Change  Column Row Layer    Maximum-Flux-Residual          L2-NORM 
          0                 1           2             1    1     1      -0.6004741105E-02       1    3    1        -0.9410985058E-03      0.1403428170E-01
          0                 2           2             1    1     1       0.5836957500E-03       1    3    1         0.9410899658E-04      0.1359187987E-02
          0                 3           1             1    1     1      -0.5127503569E-04       1    3    1        -0.8469866678E-05      0.1240400734E-03
          0                 4           1             1    1     1       0.4023482909E-05       1    5    1         0.6784361215E-06      0.1018554921E-04
          0                 5           1             1    1     1      -0.2779659489E-06       1    3    1        -0.4769340123E-07      0.7318570076E-06

    ------------------------------------------------
       NWT REQUIRED            5 OUTER ITERATIONS 
       AND A TOTAL OF          7 INNER ITERATIONS.
    ------------------------------------------------

 NO OUTPUT CONTROL FOR STRESS PERIOD   50   TIME STEP    4
 
 WELLS WITH REDUCED PUMPING FOR STRESS PERIOD    50 TIME STEP     4
   LAY   ROW   COL         APPL.Q          ACT.Q        GW-HEAD       CELL-BOT
     1     3    50  -0.870120E+00  -0.286339E+00   0.430047E-03   0.000000E+00
     1     5    55  -0.870120E+00  -0.222931E+00   0.367455E-03   0.000000E+00
 
 
 SOLVING FOR HEAD 
                                                   Max.-Head-Change                         Max.-Flux-Residual
  Residual-Control   Outer-Iter.   Inner-Iter.     Column Row Layer    Maximum-Head-Change  Column Row Layer    Maximum-Flux-Residual          L2-NORM 
          0                 1           2             1    1     1      -0.6605371177E-02       1    3    1        -0.9403515373E-03      0.1404721729E-01
          0                 2           2             1    1     1       0.6407631781E-03       1    3    1         0.9403423288E-04      0.1361207700E-02
          0                 3           1             1    1     1      -0.5617856941E-04       1    3    1        -0.8463144741E-05      0.1243342412E-03
          0                 4           1             1    1     1       0.4400455252E-05       1    3    1         0.6778976243E-06      0.1023058697E-04
          0                 5           1             1    1     1      -0.3035439971E-06       1    5    1        -0.4765553285E-07      0.7369494262E-06

    ------------------------------------------------
       NWT REQUIRED            5 OUTER ITERATIONS 
       AND A TOTAL OF          7 INNER ITERATIONS.
    ------------------------------------------------

 NO OUTPUT CONTROL FOR STRESS PERIOD   50   TIME STEP    5
 
 WELLS WITH REDUCED PUMPING FOR STRESS PERIOD    50 TIME STEP     5
   LAY   ROW   COL         APPL.Q          ACT.Q        GW-HEAD       CELL-BOT
     1     3    50  -0.870060E+00  -0.286311E+00   0.430040E-03   0.000000E+00
     1     5    55  -0.870060E+00  -0.222921E+00   0.367460E-03   0.000000E+00
 
 
 SOLVING FOR HEAD 
                                                   Max.-Head-Change                         Max.-Flux-Residual
  Residual-Control   Outer-Iter.   Inner-Iter.     Column Row Layer    Maximum-Head-Change  Column Row Layer    Maximum-Flux-Residual          L2-NORM 
          0                 1           2             1    1     1      -0.7264645234E-02       1    3    1        -0.9398010356E-03      0.1406328534E-01
          0                 2           2             1    1     1       0.7031991101E-03       1    3    1         0.9397910539E-04      0.1362931368E-02
          0                 3           1             1    1     1      -0.6152397437E-04       1    3    1        -0.8458190834E-05      0.1245798270E-03
          0                 4           1             1    1     1       0.4809807722E-05       1    5    1         0.6775007453E-06      0.1027175747E-04
          0                 5           1             1    1     1      -0.3312101470E-06      17    4    1         0.4789739627E-07      0.7418921941E-06

    ------------------------------------------------
       NWT REQUIRED            5 OUTER ITERATIONS 
       AND A TOTAL OF          7 INNER ITERATIONS.
    ------------------------------------------------

 NO OUTPUT CONTROL FOR STRESS PERIOD   50   TIME STEP    6
 
 WELLS WITH REDUCED PUMPING FOR STRESS PERIOD    50 TIME STEP     6
   LAY   ROW   COL         APPL.Q          ACT.Q        GW-HEAD       CELL-BOT
     1     3    50  -0.869950E+00  -0.286281E+00   0.430045E-03   0.000000E+00
     1     5    55  -0.869950E+00  -0.222910E+00   0.367476E-03   0.000000E+00
 
 
 SOLVING FOR HEAD 
                                                   Max.-Head-Change                         Max.-Flux-Residual
  Residual-Control   Outer-Iter.   Inner-Iter.     Column Row Layer    Maximum-Head-Change  Column Row Layer    Maximum-Flux-Residual          L2-NORM 
          0                 1           2             1    1     1      -0.7988635367E-02       1    3    1        -0.9393761163E-03      0.1408105285E-01
          0                 2           2             1    1     1       0.7715446172E-03       1    3    1         0.9393652553E-04      0.1364647721E-02
          0                 3           1             1    1     1      -0.6735393600E-04       1    3    1        -0.8454367013E-05      0.1248324478E-03
          0                 4           1             1    1     1       0.5254472537E-05       1    5    1         0.6771943699E-06      0.1031436207E-04
          0                 5           1             1    1     1      -0.3611368372E-06      17    4    1         0.4991685465E-07      0.7470403497E-06

    ------------------------------------------------
       NWT REQUIRED            5 OUTER ITERATIONS 
       AND A TOTAL OF          7 INNER ITERATIONS.
    ------------------------------------------------

 NO OUTPUT CONTROL FOR STRESS PERIOD   50   TIME STEP    7
 
 WELLS WITH REDUCED PUMPING FOR STRESS PERIOD    50 TIME STEP     7
   LAY   ROW   COL         APPL.Q          ACT.Q        GW-HEAD       CELL-BOT
     1     3    50  -0.869900E+00  -0.286248E+00   0.430030E-03   0.000000E+00
     1     5    55  -0.869900E+00  -0.222898E+00   0.367477E-03   0.000000E+00
 
 
 SOLVING FOR HEAD 
                                                   Max.-Head-Change                         Max.-Flux-Residual
  Residual-Control   Outer-Iter.   Inner-Iter.     Column Row Layer    Maximum-Head-Change  Column Row Layer    Maximum-Flux-Residual          L2-NORM 
          0                 1           2             1    1     1      -0.8783966792E-02       1    3    1        -0.9390231349E-03      0.1410341321E-01
          0                 2           2             1    1     1       0.8463901091E-03       1    3    1         0.9390112909E-04      0.1366197690E-02
          0                 3           1             1    1     1      -0.7371499438E-04       1    3    1        -0.8451190542E-05      0.1250512038E-03
          0                 4           1             1    1     1       0.5737635009E-05       1    5    1         0.6769398428E-06      0.1035484439E-04
          0                 5           1             1    1     1      -0.3935100105E-06      17    4    1         0.5191293440E-07      0.7521902393E-06

    ------------------------------------------------
       NWT REQUIRED            5 OUTER ITERATIONS 
       AND A TOTAL OF          7 INNER ITERATIONS.
    ------------------------------------------------

 NO OUTPUT CONTROL FOR STRESS PERIOD   50   TIME STEP    8
 
 WELLS WITH REDUCED PUMPING FOR STRESS PERIOD    50 TIME STEP     8
   LAY   ROW   COL         APPL.Q          ACT.Q        GW-HEAD       CELL-BOT
     1     3    50  -0.869923E+00  -0.286212E+00   0.429990E-03   0.000000E+00
     1     5    55  -0.869923E+00  -0.222884E+00   0.367459E-03   0.000000E+00
 
 
 SOLVING FOR HEAD 
                                                   Max.-Head-Change                         Max.-Flux-Residual
  Residual-Control   Outer-Iter.   Inner-Iter.     Column Row Layer    Maximum-Head-Change  Column Row Layer    Maximum-Flux-Residual          L2-NORM 
          0                 1           2             1    1     1      -0.9657858963E-02       1    3    1        -0.9387049206E-03      0.1411980770E-01
          0                 2           2             1    1     1       0.9283792115E-03       1    3    1         0.9386919905E-04      0.1368436550E-02
          0                 3           1             1    1     1      -0.8065787145E-04       1    3    1        -0.8448326959E-05      0.1253421346E-03
          0                 4           1             1    1     1       0.6262755351E-05       1    3    1         0.6767103571E-06      0.1040024550E-04
          0                 5           1             1    1     1      -0.4285301546E-06      17    4    1         0.5387741098E-07      0.7577178064E-06

    ------------------------------------------------
       NWT REQUIRED            5 OUTER ITERATIONS 
       AND A TOTAL OF          7 INNER ITERATIONS.
    ------------------------------------------------

 NO OUTPUT CONTROL FOR STRESS PERIOD   50   TIME STEP    9
 
 WELLS WITH REDUCED PUMPING FOR STRESS PERIOD    50 TIME STEP     9
   LAY   ROW   COL         APPL.Q          ACT.Q        GW-HEAD       CELL-BOT
     1     3    50  -0.869964E+00  -0.286171E+00   0.429941E-03   0.000000E+00
     1     5    55  -0.869964E+00  -0.222870E+00   0.367434E-03   0.000000E+00
 
 
 SOLVING FOR HEAD 
                                                   Max.-Head-Change                         Max.-Flux-Residual
  Residual-Control   Outer-Iter.   Inner-Iter.     Column Row Layer    Maximum-Head-Change  Column Row Layer    Maximum-Flux-Residual          L2-NORM 
          0                 1           2             1    1     1      -0.1061819017E-01       1    3    1        -0.9383969019E-03      0.1414219202E-01
          0                 2           2             1    1     1       0.1018214890E-02       1    3    1         0.9383827818E-04      0.1370065178E-02
          0                 3           1             1    1     1      -0.8823799120E-04       1    3    1        -0.8445555174E-05      0.1255676240E-03
          0                 4           1             1    1     1       0.6833603313E-05       1    3    1         0.6764882272E-06      0.1044133676E-04
          0                 5           1             1    1     1      -0.4664147427E-06      17    4    1         0.5580271178E-07      0.7630496572E-06

    ------------------------------------------------
       NWT REQUIRED            5 OUTER ITERATIONS 
       AND A TOTAL OF          7 INNER ITERATIONS.
    ------------------------------------------------

 NO OUTPUT CONTROL FOR STRESS PERIOD   50   TIME STEP   10
 
 WELLS WITH REDUCED PUMPING FOR STRESS PERIOD    50 TIME STEP    10
   LAY   ROW   COL         APPL.Q          ACT.Q        GW-HEAD       CELL-BOT
     1     3    50  -0.869926E+00  -0.286127E+00   0.429912E-03   0.000000E+00
     1     5    55  -0.869926E+00  -0.222853E+00   0.367428E-03   0.000000E+00
 
 
 SOLVING FOR HEAD 
                                                   Max.-Head-Change                         Max.-Flux-Residual
  Residual-Control   Outer-Iter.   Inner-Iter.     Column Row Layer    Maximum-Head-Change  Column Row Layer    Maximum-Flux-Residual          L2-NORM 
          0                 1           2             1    1     1      -0.1167356600E-01       1    6    1        -0.9380916877E-03      0.1416243062E-01
          0                 2           2             1    1     1       0.1116665953E-02       1    1    1         0.9380855027E-04      0.1372234623E-02
          0                 3           1             1    1     1      -0.9651603378E-04       1    2    1        -0.8442830314E-05      0.1258570684E-03
          0                 4           1             1    1     1       0.7454293968E-05       1    1    1         0.6762695968E-06      0.1048723817E-04
          0                 5           1             1    1     1      -0.5073991843E-06      17    4    1         0.5768182376E-07      0.7687239488E-06

    ------------------------------------------------
       NWT REQUIRED            5 OUTER ITERATIONS 
       AND A TOTAL OF          7 INNER ITERATIONS.
    ------------------------------------------------

 NO OUTPUT CONTROL FOR STRESS PERIOD   50   TIME STEP   11
 
 WELLS WITH REDUCED PUMPING FOR STRESS PERIOD    50 TIME STEP    11
   LAY   ROW   COL         APPL.Q          ACT.Q        GW-HEAD       CELL-BOT
     1     3    50  -0.870029E+00  -0.286078E+00   0.429837E-03   0.000000E+00
     1     5    55  -0.870029E+00  -0.222835E+00   0.367385E-03   0.000000E+00
 
 
 SOLVING FOR HEAD 
                                                   Max.-Head-Change                         Max.-Flux-Residual
  Residual-Control   Outer-Iter.   Inner-Iter.     Column Row Layer    Maximum-Head-Change  Column Row Layer    Maximum-Flux-Residual          L2-NORM 
          0                 1           2             1    1     1      -0.1283478416E-01       1    1    1        -0.9377768336E-03      0.1419577134E-01
          0                 2           2             1    1     1       0.1224917372E-02       1    1    1         0.9377710378E-04      0.1374559615E-02
          0                 3           1             2    1     1      -0.1056006177E-03       1    1    1        -0.8440001620E-05      0.1259819418E-03
          0                 4           1             2    1     1       0.8133064220E-05       1    7    1         0.6760434772E-06      0.1050707171E-04
          0                 5           1             1    1     1      -0.5519714496E-06      17    4    1         0.5950799498E-07      0.7720597479E-06

    ------------------------------------------------
       NWT REQUIRED            5 OUTER ITERATIONS 
       AND A TOTAL OF          7 INNER ITERATIONS.
    ------------------------------------------------

 NO OUTPUT CONTROL FOR STRESS PERIOD   50   TIME STEP   12
 
 WELLS WITH REDUCED PUMPING FOR STRESS PERIOD    50 TIME STEP    12
   LAY   ROW   COL         APPL.Q          ACT.Q        GW-HEAD       CELL-BOT
     1     3    50  -0.870044E+00  -0.286024E+00   0.429784E-03   0.000000E+00
     1     5    55  -0.870044E+00  -0.222815E+00   0.367362E-03   0.000000E+00
 
 
 SOLVING FOR HEAD 
                                                   Max.-Head-Change                         Max.-Flux-Residual
  Residual-Control   Outer-Iter.   Inner-Iter.     Column Row Layer    Maximum-Head-Change  Column Row Layer    Maximum-Flux-Residual          L2-NORM 
          0                 1           2             6    4     1      -0.1526104892E-01       1    3    1        -0.9375514985E-03      0.1435939350E-01
          0                 2           2             5    1     1       0.1364572956E-02       1    3    1         0.9375591870E-04      0.1381296186E-02
          0                 3           2             5    1     1      -0.1173187642E-03       1    3    1        -0.8438164347E-05      0.1259515158E-03
          0                 4           1             5    1     1       0.9003048820E-05       1    5    1         0.6758957660E-06      0.1049227070E-04
          0                 5           1             4    1     1      -0.6083120647E-06      17    4    1         0.6160519916E-07      0.7723082029E-06

    ------------------------------------------------
       NWT REQUIRED            5 OUTER ITERATIONS 
       AND A TOTAL OF          8 INNER ITERATIONS.
    ------------------------------------------------

 NO OUTPUT CONTROL FOR STRESS PERIOD   50   TIME STEP   13
 
 WELLS WITH REDUCED PUMPING FOR STRESS PERIOD    50 TIME STEP    13
   LAY   ROW   COL         APPL.Q          ACT.Q        GW-HEAD       CELL-BOT
     1     3    50  -0.870044E+00  -0.285964E+00   0.429729E-03   0.000000E+00
     1     5    55  -0.870044E+00  -0.222792E+00   0.367340E-03   0.000000E+00
 
 
 SOLVING FOR HEAD 
                                                   Max.-Head-Change                         Max.-Flux-Residual
  Residual-Control   Outer-Iter.   Inner-Iter.     Column Row Layer    Maximum-Head-Change  Column Row Layer    Maximum-Flux-Residual          L2-NORM 
          0                 1           2             1    4     1      -0.1682451866E-01       6    3    1        -0.9847781136E-03      0.1448781378E-01
          0                 2           2             4    1     1       0.1519974562E-02       6    5    1         0.9847429726E-04      0.1396992679E-02
          0                 3           2             5    1     1      -0.1305599670E-03       6    5    1        -0.8862876886E-05      0.1276024519E-03
          0                 4           1             5    1     1       0.1000731180E-04       6    5    1         0.7099146959E-06      0.1065427512E-04
          0                 5           1             5    1     1      -0.6747718992E-06      19    4    1         0.6160363775E-07      0.7865203724E-06

    ------------------------------------------------
       NWT REQUIRED            5 OUTER ITERATIONS 
       AND A TOTAL OF          8 INNER ITERATIONS.
    ------------------------------------------------

 NO OUTPUT CONTROL FOR STRESS PERIOD   50   TIME STEP   14
 
 WELLS WITH REDUCED PUMPING FOR STRESS PERIOD    50 TIME STEP    14
   LAY   ROW   COL         APPL.Q          ACT.Q        GW-HEAD       CELL-BOT
     1     3    50  -0.870018E+00  -0.285897E+00   0.429676E-03   0.000000E+00
     1     5    55  -0.870018E+00  -0.222767E+00   0.367322E-03   0.000000E+00
 
 
 SOLVING FOR HEAD 
                                                   Max.-Head-Change                         Max.-Flux-Residual
  Residual-Control   Outer-Iter.   Inner-Iter.     Column Row Layer    Maximum-Head-Change  Column Row Layer    Maximum-Flux-Residual          L2-NORM 
          0                 1           2             1    5     1      -0.1785370554E-01       1    3    1        -0.9932947727E-03      0.1456659351E-01
          0                 2           2             1    1     1       0.1684721897E-02       1    3    1         0.9932542047E-04      0.1407737641E-02
          0                 3           2             1    1     1      -0.1443921864E-03       1    5    1        -0.8939499827E-05      0.1287784078E-03
          0                 4           1             1    1     1       0.1103910644E-04       1    3    1         0.7160519715E-06      0.1077436382E-04
          0                 5           1             1    1     1      -0.7422501773E-06      17    4    1         0.6137941533E-07      0.7974482781E-06

    ------------------------------------------------
       NWT REQUIRED            5 OUTER ITERATIONS 
       AND A TOTAL OF          8 INNER ITERATIONS.
    ------------------------------------------------

 NO OUTPUT CONTROL FOR STRESS PERIOD   50   TIME STEP   15
 
 WELLS WITH REDUCED PUMPING FOR STRESS PERIOD    50 TIME STEP    15
   LAY   ROW   COL         APPL.Q          ACT.Q        GW-HEAD       CELL-BOT
     1     3    50  -0.870018E+00  -0.285822E+00   0.429608E-03   0.000000E+00
     1     5    55  -0.870018E+00  -0.222738E+00   0.367295E-03   0.000000E+00
 
 
 SOLVING FOR HEAD 
                                                   Max.-Head-Change                         Max.-Flux-Residual
  Residual-Control   Outer-Iter.   Inner-Iter.     Column Row Layer    Maximum-Head-Change  Column Row Layer    Maximum-Flux-Residual          L2-NORM 
          0                 1           2             1    2     1      -0.1957294056E-01       1    3    1        -0.9854066689E-03      0.1463099589E-01
          0                 2           2             1    1     1       0.1856683331E-02       1    3    1         0.9853714266E-04      0.1414573172E-02
          0                 3           2             1    1     1      -0.1588058357E-03       1    3    1        -0.8868562702E-05      0.1294645426E-03
          0                 4           1             1    1     1       0.1211208619E-04       1    3    1         0.7103697612E-06      0.1084870978E-04
          0                 5           1             1    1     1      -0.8119629513E-06      17    4    1         0.6510673423E-07      0.8048384676E-06

    ------------------------------------------------
       NWT REQUIRED            5 OUTER ITERATIONS 
       AND A TOTAL OF          8 INNER ITERATIONS.
    ------------------------------------------------

 NO OUTPUT CONTROL FOR STRESS PERIOD   50   TIME STEP   16
 
 WELLS WITH REDUCED PUMPING FOR STRESS PERIOD    50 TIME STEP    16
   LAY   ROW   COL         APPL.Q          ACT.Q        GW-HEAD       CELL-BOT
     1     3    50  -0.870018E+00  -0.285738E+00   0.429532E-03   0.000000E+00
     1     5    55  -0.870018E+00  -0.222705E+00   0.367263E-03   0.000000E+00
 
 
 SOLVING FOR HEAD 
                                                   Max.-Head-Change                         Max.-Flux-Residual
  Residual-Control   Outer-Iter.   Inner-Iter.     Column Row Layer    Maximum-Head-Change  Column Row Layer    Maximum-Flux-Residual          L2-NORM 
          0                 1           2             1    1     1      -0.2153700698E-01       1    3    1        -0.9806938944E-03      0.1468553649E-01
          0                 2           2             1    1     1       0.2039364075E-02       1    3    1         0.9806633098E-04      0.1420299596E-02
          0                 3           2             1    1     1      -0.1740231147E-03       1    3    1        -0.8826203320E-05      0.1300199753E-03
          0                 4           1             1    1     1       0.1323661138E-04       1    3    1         0.7069765608E-06      0.1091012213E-04
          0                 5           1             1    1     1      -0.8842543445E-06      17    4    1         0.6669847608E-07      0.8111323888E-06

    ------------------------------------------------
       NWT REQUIRED            5 OUTER ITERATIONS 
       AND A TOTAL OF          8 INNER ITERATIONS.
    ------------------------------------------------

 NO OUTPUT CONTROL FOR STRESS PERIOD   50   TIME STEP   17
 
 WELLS WITH REDUCED PUMPING FOR STRESS PERIOD    50 TIME STEP    17
   LAY   ROW   COL         APPL.Q          ACT.Q        GW-HEAD       CELL-BOT
     1     3    50  -0.870038E+00  -0.285640E+00   0.429437E-03   0.000000E+00
     1     5    55  -0.870038E+00  -0.222665E+00   0.367219E-03   0.000000E+00
 
 
 SOLVING FOR HEAD 
                                                   Max.-Head-Change                         Max.-Flux-Residual
  Residual-Control   Outer-Iter.   Inner-Iter.     Column Row Layer    Maximum-Head-Change  Column Row Layer    Maximum-Flux-Residual          L2-NORM 
          0                 1           2             1    1     1      -0.2367797904E-01       1    3    1        -0.9785856217E-03      0.1473642755E-01
          0                 2           2             1    1     1       0.2237544641E-02       1    3    1         0.9785554229E-04      0.1425606870E-02
          0                 3           2             1    1     1      -0.1904762433E-03       1    3    1        -0.8807252307E-05      0.1305224600E-03
          0                 4           1             1    1     1       0.1444717336E-04       1    3    1         0.7054583122E-06      0.1096485900E-04
          0                 5           1             1    1     1      -0.9614389452E-06      18    4    1         0.6713042566E-07      0.8166377960E-06

    ------------------------------------------------
       NWT REQUIRED            5 OUTER ITERATIONS 
       AND A TOTAL OF          8 INNER ITERATIONS.
    ------------------------------------------------

 NO OUTPUT CONTROL FOR STRESS PERIOD   50   TIME STEP   18
 
 WELLS WITH REDUCED PUMPING FOR STRESS PERIOD    50 TIME STEP    18
   LAY   ROW   COL         APPL.Q          ACT.Q        GW-HEAD       CELL-BOT
     1     3    50  -0.870029E+00  -0.285522E+00   0.429333E-03   0.000000E+00
     1     5    55  -0.870029E+00  -0.222611E+00   0.367169E-03   0.000000E+00
 
 
 SOLVING FOR HEAD 
                                                   Max.-Head-Change                         Max.-Flux-Residual
  Residual-Control   Outer-Iter.   Inner-Iter.     Column Row Layer    Maximum-Head-Change  Column Row Layer    Maximum-Flux-Residual          L2-NORM 
          0                 1           2             1    1     1      -0.2602294694E-01       1    3    1        -0.9774010951E-03      0.1478563350E-01
          0                 2           2             1    1     1       0.2454236596E-02       1    3    1         0.9773693070E-04      0.1430467340E-02
          0                 3           2             1    1     1      -0.2084252760E-03       1    3    1        -0.8796601080E-05      0.1309686815E-03
          0                 4           1             1    1     1       0.1576352221E-04       1    5    1         0.7046048314E-06      0.1101369889E-04
          0                 5           1             1    1     1      -0.1044698065E-05      18    4    1         0.6871123936E-07      0.8214621680E-06
          0                 6           1             1    1     1       0.5976763399E-07      18    4    1        -0.5218211641E-08      0.5286286952E-07

    ------------------------------------------------
       NWT REQUIRED            6 OUTER ITERATIONS 
       AND A TOTAL OF          9 INNER ITERATIONS.
    ------------------------------------------------

 NO OUTPUT CONTROL FOR STRESS PERIOD   50   TIME STEP   19
 
 WELLS WITH REDUCED PUMPING FOR STRESS PERIOD    50 TIME STEP    19
   LAY   ROW   COL         APPL.Q          ACT.Q        GW-HEAD       CELL-BOT
     1     3    50  -0.869981E+00  -0.285392E+00   0.429229E-03   0.000000E+00
     1     5    55  -0.869981E+00  -0.222550E+00   0.367123E-03   0.000000E+00
 
 
 SOLVING FOR HEAD 
                                                   Max.-Head-Change                         Max.-Flux-Residual
  Residual-Control   Outer-Iter.   Inner-Iter.     Column Row Layer    Maximum-Head-Change  Column Row Layer    Maximum-Flux-Residual          L2-NORM 
          0                 1           2             1    1     1      -0.2859684388E-01       1    5    1        -0.9764861688E-03      0.1483406636E-01
          0                 2           2             1    1     1       0.2691771378E-02       1    5    1         0.9764519188E-04      0.1435070094E-02
          0                 3           2             1    1     1      -0.2280651673E-03       1    5    1        -0.8788371295E-05      0.1314036109E-03
          0                 4           1             1    1     1       0.1719984573E-04       1    3    1         0.7039452576E-06      0.1106303904E-04
          0                 5           1             1    1     1      -0.1134733033E-05      18    4    1         0.6997050761E-07      0.8261567931E-06
          0                 6           1             1    1     1       0.6458542751E-07      18    4    1        -0.5335682118E-08      0.5326890756E-07

    ------------------------------------------------
       NWT REQUIRED            6 OUTER ITERATIONS 
       AND A TOTAL OF          9 INNER ITERATIONS.
    ------------------------------------------------

 NO OUTPUT CONTROL FOR STRESS PERIOD   50   TIME STEP   20
 
 WELLS WITH REDUCED PUMPING FOR STRESS PERIOD    50 TIME STEP    20
   LAY   ROW   COL         APPL.Q          ACT.Q        GW-HEAD       CELL-BOT
     1     3    50  -0.869974E+00  -0.285204E+00   0.429060E-03   0.000000E+00
     1     5    55  -0.869974E+00  -0.222429E+00   0.367008E-03   0.000000E+00
 
 
 SOLVING FOR HEAD 
                                                   Max.-Head-Change                         Max.-Flux-Residual
  Residual-Control   Outer-Iter.   Inner-Iter.     Column Row Layer    Maximum-Head-Change  Column Row Layer    Maximum-Flux-Residual          L2-NORM 
          0                 1           2             1    1     1      -0.3142345172E-01       1    7    1        -0.9756283850E-03      0.1487457903E-01
          0                 2           2             1    1     1       0.2952339371E-02       1    7    1         0.9756062276E-04      0.1439307873E-02
          0                 3           2             1    1     1      -0.2495759573E-03       1    7    1        -0.8780676450E-05      0.1317929601E-03
          0                 4           1             1    1     1       0.1876889620E-04      18    4    1        -0.7073654746E-06      0.1110622524E-04
          0                 5           1             1    1     1      -0.1232054080E-05      18    4    1         0.7112514488E-07      0.8299603541E-06
          0                 6           1             1    1     1       0.6972336278E-07      18    4    1        -0.5443670403E-08      0.5359264495E-07

    ------------------------------------------------
       NWT REQUIRED            6 OUTER ITERATIONS 
       AND A TOTAL OF          9 INNER ITERATIONS.
    ------------------------------------------------

 NO OUTPUT CONTROL FOR STRESS PERIOD   50   TIME STEP   21
 
 WELLS WITH REDUCED PUMPING FOR STRESS PERIOD    50 TIME STEP    21
   LAY   ROW   COL         APPL.Q          ACT.Q        GW-HEAD       CELL-BOT
     1     3    50  -0.870000E+00  -0.284974E+00   0.428844E-03   0.000000E+00
     1     5    55  -0.870000E+00  -0.222296E+00   0.366874E-03   0.000000E+00
 
 
 SOLVING FOR HEAD 
                                                   Max.-Head-Change                         Max.-Flux-Residual
  Residual-Control   Outer-Iter.   Inner-Iter.     Column Row Layer    Maximum-Head-Change  Column Row Layer    Maximum-Flux-Residual          L2-NORM 
          0                 1           2             1    1     1      -0.3452764387E-01       1    7    1        -0.9747580524E-03      0.1491429826E-01
          0                 2           2             1    1     1       0.3238219745E-02       1    7    1         0.9747329070E-04      0.1443336754E-02
          0                 3           2             1    1     1      -0.2731439082E-03       1    7    1        -0.8772845681E-05      0.1321955732E-03
          0                 4           1             1    1     1       0.2048365236E-04      18    4    1        -0.7157408124E-06      0.1115312423E-04
          0                 5           1             1    1     1      -0.1337036756E-05      18    4    1         0.7225702348E-07      0.8337191161E-06
          0                 6           1             1    1     1       0.7517483832E-07      18    4    1        -0.5548217885E-08      0.5388430737E-07

    ------------------------------------------------
       NWT REQUIRED            6 OUTER ITERATIONS 
       AND A TOTAL OF          9 INNER ITERATIONS.
    ------------------------------------------------

 NO OUTPUT CONTROL FOR STRESS PERIOD   50   TIME STEP   22
 
 WELLS WITH REDUCED PUMPING FOR STRESS PERIOD    50 TIME STEP    22
   LAY   ROW   COL         APPL.Q          ACT.Q        GW-HEAD       CELL-BOT
     1     3    50  -0.869994E+00  -0.284740E+00   0.428633E-03   0.000000E+00
     1     5    55  -0.869994E+00  -0.222163E+00   0.366747E-03   0.000000E+00
 
 
 SOLVING FOR HEAD 
                                                   Max.-Head-Change                         Max.-Flux-Residual
  Residual-Control   Outer-Iter.   Inner-Iter.     Column Row Layer    Maximum-Head-Change  Column Row Layer    Maximum-Flux-Residual          L2-NORM 
          0                 1           2             1    1     1      -0.3793626411E-01       1    7    1        -0.9738304747E-03      0.1494612703E-01
          0                 2           2             1    1     1       0.3551868255E-02       1    7    1         0.9738019934E-04      0.1446778765E-02
          0                 3           2             1    1     1      -0.2989693895E-03       1    7    1        -0.8764499765E-05      0.1325399679E-03
          0                 4           1             1    1     1       0.2235793935E-04      19    4    1        -0.7111947991E-06      0.1119375159E-04
          0                 5           1             1    1     1      -0.1449953636E-05      18    4    1         0.7213838416E-07      0.8364398946E-06
          0                 6           1             1    1     1       0.8091713728E-07      18    4    1        -0.5565343741E-08      0.5407357661E-07

    ------------------------------------------------
       NWT REQUIRED            6 OUTER ITERATIONS 
       AND A TOTAL OF          9 INNER ITERATIONS.
    ------------------------------------------------

 NO OUTPUT CONTROL FOR STRESS PERIOD   50   TIME STEP   23
 
 WELLS WITH REDUCED PUMPING FOR STRESS PERIOD    50 TIME STEP    23
   LAY   ROW   COL         APPL.Q          ACT.Q        GW-HEAD       CELL-BOT
     1     3    50  -0.870016E+00  -0.284494E+00   0.428404E-03   0.000000E+00
     1     5    55  -0.870016E+00  -0.222024E+00   0.366609E-03   0.000000E+00
 
 
 SOLVING FOR HEAD 
                                                   Max.-Head-Change                         Max.-Flux-Residual
  Residual-Control   Outer-Iter.   Inner-Iter.     Column Row Layer    Maximum-Head-Change  Column Row Layer    Maximum-Flux-Residual          L2-NORM 
          0                 1           2             1    1     1      -0.4167855032E-01       1    7    1        -0.9728395884E-03      0.1498500716E-01
          0                 2           2             1    1     1       0.3895957773E-02       1    1    1         0.9728073722E-04      0.1449979427E-02
          0                 3           2             1    1     1      -0.3272703810E-03       1    7    1        -0.8755583965E-05      0.1328380021E-03
          0                 4           1             1    1     1       0.2440659001E-04      19    4    1        -0.7152268306E-06      0.1123002718E-04
          0                 5           1             1    1     1      -0.1570875816E-05      18    4    1         0.7269860092E-07      0.8382025226E-06
          0                 6           1             1    1     1       0.8690446752E-07      18    4    1        -0.5626288768E-08      0.5415996262E-07

    ------------------------------------------------
       NWT REQUIRED            6 OUTER ITERATIONS 
       AND A TOTAL OF          9 INNER ITERATIONS.
    ------------------------------------------------

 NO OUTPUT CONTROL FOR STRESS PERIOD   50   TIME STEP   24
 
 WELLS WITH REDUCED PUMPING FOR STRESS PERIOD    50 TIME STEP    24
   LAY   ROW   COL         APPL.Q          ACT.Q        GW-HEAD       CELL-BOT
     1     3    50  -0.869996E+00  -0.284140E+00   0.428087E-03   0.000000E+00
     1     5    55  -0.869996E+00  -0.221776E+00   0.366376E-03   0.000000E+00
 
 
 SOLVING FOR HEAD 
                                                   Max.-Head-Change                         Max.-Flux-Residual
  Residual-Control   Outer-Iter.   Inner-Iter.     Column Row Layer    Maximum-Head-Change  Column Row Layer    Maximum-Flux-Residual          L2-NORM 
          0                 1           2             1    1     1      -0.4578639570E-01       1    7    1        -0.9717762388E-03      0.1500665675E-01
          0                 2           2             1    1     1       0.4273401584E-02       1    1    1         0.9717398404E-04      0.1452575949E-02
          0                 3           2             1    1     1      -0.3582843053E-03       1    7    1        -0.8746015800E-05      0.1330688337E-03
          0                 4           1             1    1     1       0.2664556514E-04      20    4    1        -0.7143091327E-06      0.1125713882E-04
          0                 5           1             1    1     1      -0.1699668793E-05      20    4    1         0.7265865953E-07      0.8383408804E-06
          0                 6           1             1    1     1       0.9306228613E-07      18    4    1        -0.5647521562E-08      0.5408932955E-07

    ------------------------------------------------
       NWT REQUIRED            6 OUTER ITERATIONS 
       AND A TOTAL OF          9 INNER ITERATIONS.
    ------------------------------------------------

 NO OUTPUT CONTROL FOR STRESS PERIOD   50   TIME STEP   25
 
 WELLS WITH REDUCED PUMPING FOR STRESS PERIOD    50 TIME STEP    25
   LAY   ROW   COL         APPL.Q          ACT.Q        GW-HEAD       CELL-BOT
     1     3    50  -0.870009E+00  -0.283771E+00   0.427748E-03   0.000000E+00
     1     5    55  -0.870009E+00  -0.221551E+00   0.366155E-03   0.000000E+00
 
 
 SOLVING FOR HEAD 
                                                   Max.-Head-Change                         Max.-Flux-Residual
  Residual-Control   Outer-Iter.   Inner-Iter.     Column Row Layer    Maximum-Head-Change  Column Row Layer    Maximum-Flux-Residual          L2-NORM 
          0                 1           2             6    4     1      -0.5214165352E-01       1    7    1        -0.9706304773E-03      0.1516599871E-01
          0                 2           2             4    1     1       0.4803804357E-02       1    3    1         0.9707196871E-04      0.1460516993E-02
          0                 3           2             4    1     1      -0.4039735490E-03       1    5    1        -0.8736857836E-05      0.1327179789E-03
          0                 4           1             4    1     1       0.3009826551E-04      21    4    1        -0.7135622013E-06      0.1114426912E-04
          0                 5           1             4    1     1      -0.1910517664E-05      20    4    1         0.7279597369E-07      0.8219821289E-06
          0                 6           1             3    1     1       0.1034527266E-06      20    4    1        -0.5639815726E-08      0.5268973890E-07

    ------------------------------------------------
       NWT REQUIRED            6 OUTER ITERATIONS 
       AND A TOTAL OF          9 INNER ITERATIONS.
    ------------------------------------------------

 NO OUTPUT CONTROL FOR STRESS PERIOD   50   TIME STEP   26
 
 WELLS WITH REDUCED PUMPING FOR STRESS PERIOD    50 TIME STEP    26
   LAY   ROW   COL         APPL.Q          ACT.Q        GW-HEAD       CELL-BOT
     1     3    50  -0.870005E+00  -0.283409E+00   0.427420E-03   0.000000E+00
     1     5    55  -0.870005E+00  -0.221337E+00   0.365951E-03   0.000000E+00
 
 
 SOLVING FOR HEAD 
                                                   Max.-Head-Change                         Max.-Flux-Residual
  Residual-Control   Outer-Iter.   Inner-Iter.     Column Row Layer    Maximum-Head-Change  Column Row Layer    Maximum-Flux-Residual          L2-NORM 
          0                 1           3             1    4     1      -0.5748527513E-01       5    5    1        -0.9984796315E-03      0.1530145756E-01
          0                 2           2             1    1     1       0.5342712563E-02       5    5    1         0.9984276801E-04      0.1476767475E-02
          0                 3           2             1    1     1      -0.4488140280E-03       5    5    1        -0.8986415814E-05      0.1343119143E-03
          0                 4           1             1    1     1       0.3337085512E-04       4    3    1         0.7198409655E-06      0.1128466232E-04
          0                 5           1             3    1     1      -0.2093595921E-05      24    4    1         0.7050177153E-07      0.8282162446E-06
          0                 6           1             1    1     1       0.1119325773E-06      24    4    1        -0.5463014929E-08      0.5288213820E-07

    ------------------------------------------------
       NWT REQUIRED            6 OUTER ITERATIONS 
       AND A TOTAL OF         10 INNER ITERATIONS.
    ------------------------------------------------

 NO OUTPUT CONTROL FOR STRESS PERIOD   50   TIME STEP   27
 
 WELLS WITH REDUCED PUMPING FOR STRESS PERIOD    50 TIME STEP    27
   LAY   ROW   COL         APPL.Q          ACT.Q        GW-HEAD       CELL-BOT
     1     3    50  -0.870001E+00  -0.282989E+00   0.427040E-03   0.000000E+00
     1     5    55  -0.870001E+00  -0.221082E+00   0.365707E-03   0.000000E+00
 
 
 SOLVING FOR HEAD 
                                                   Max.-Head-Change                         Max.-Flux-Residual
  Residual-Control   Outer-Iter.   Inner-Iter.     Column Row Layer    Maximum-Head-Change  Column Row Layer    Maximum-Flux-Residual          L2-NORM 
          0                 1           3             1    1     1      -0.6284682270E-01       1    5    1        -0.1005840040E-02      0.1538247548E-01
          0                 2           2             1    1     1       0.5879236984E-02       1    5    1         0.1005749187E-03      0.1487012534E-02
          0                 3           2             1    1     1      -0.4934426532E-03       1    5    1        -0.9052390396E-05      0.1353676632E-03
          0                 4           1             1    1     1       0.3661706271E-04       1    3    1         0.7250884195E-06      0.1138133038E-04
          0                 5           1             1    1     1      -0.2262969652E-05      19    4    1         0.7028683591E-07      0.8296408919E-06
          0                 6           1             1    1     1       0.1190465197E-06      19    4    1        -0.5409630077E-08      0.5269011971E-07

    ------------------------------------------------
       NWT REQUIRED            6 OUTER ITERATIONS 
       AND A TOTAL OF         10 INNER ITERATIONS.
    ------------------------------------------------

 NO OUTPUT CONTROL FOR STRESS PERIOD   50   TIME STEP   28
 
 WELLS WITH REDUCED PUMPING FOR STRESS PERIOD    50 TIME STEP    28
   LAY   ROW   COL         APPL.Q          ACT.Q        GW-HEAD       CELL-BOT
     1     3    50  -0.869985E+00  -0.282490E+00   0.426590E-03   0.000000E+00
     1     5    55  -0.869985E+00  -0.220747E+00   0.365388E-03   0.000000E+00
 
 
 SOLVING FOR HEAD 
                                                   Max.-Head-Change                         Max.-Flux-Residual
  Residual-Control   Outer-Iter.   Inner-Iter.     Column Row Layer    Maximum-Head-Change  Column Row Layer    Maximum-Flux-Residual          L2-NORM 
          0                 1           3             1    1     1      -0.6902299383E-01       1    5    1        -0.1001640911E-02      0.1543631346E-01
          0                 2           2             1    1     1       0.6450449168E-02       1    5    1         0.1001560825E-03      0.1493090712E-02
          0                 3           2             1    1     1      -0.5406548767E-03       1    5    1        -0.9014737314E-05      0.1359107253E-03
          0                 4           1             1    1     1       0.4001365005E-04       1    3    1         0.7220717126E-06      0.1142746770E-04
          0                 5           1             3    1     1      -0.2427202979E-05      19    4    1         0.7109721523E-07      0.8257314817E-06
          0                 6           1             1    1     1       0.1249279725E-06      20    4    1        -0.5490885968E-08      0.5210853814E-07

    ------------------------------------------------
       NWT REQUIRED            6 OUTER ITERATIONS 
       AND A TOTAL OF         10 INNER ITERATIONS.
    ------------------------------------------------

 NO OUTPUT CONTROL FOR STRESS PERIOD   50   TIME STEP   29
 
 WELLS WITH REDUCED PUMPING FOR STRESS PERIOD    50 TIME STEP    29
   LAY   ROW   COL         APPL.Q          ACT.Q        GW-HEAD       CELL-BOT
     1     3    50  -0.870009E+00  -0.281856E+00   0.426007E-03   0.000000E+00
     1     5    55  -0.870009E+00  -0.220325E+00   0.364976E-03   0.000000E+00
 
 
 SOLVING FOR HEAD 
                                                   Max.-Head-Change                         Max.-Flux-Residual
  Residual-Control   Outer-Iter.   Inner-Iter.     Column Row Layer    Maximum-Head-Change  Column Row Layer    Maximum-Flux-Residual          L2-NORM 
          0                 1           3             1    1     1      -0.7577427037E-01       1    5    1        -0.9993690932E-03      0.1546875218E-01
          0                 2           2             1    1     1       0.7074371642E-02       1    5    1         0.9992854690E-04      0.1497233718E-02
          0                 3           2             1    1     1      -0.5921558242E-03       1    5    1        -0.8994320231E-05      0.1362602663E-03
          0                 4           1             1    1     1       0.4369867712E-04       1    5    1         0.7204354180E-06      0.1145428758E-04
          0                 5           1             3    1     1      -0.2590690711E-05      20    4    1         0.7112500988E-07      0.8187062277E-06
          0                 6           1             1    1     1       0.1297444965E-06      20    4    1        -0.5524608326E-08      0.5129888961E-07

    ------------------------------------------------
       NWT REQUIRED            6 OUTER ITERATIONS 
       AND A TOTAL OF         10 INNER ITERATIONS.
    ------------------------------------------------

 OUTPUT CONTROL FOR STRESS PERIOD   50   TIME STEP   30
    PRINT HEAD FOR ALL LAYERS
    SAVE HEAD FOR ALL LAYERS
    PRINT BUDGET
    SAVE BUDGET
 
 WELLS WITH REDUCED PUMPING FOR STRESS PERIOD    50 TIME STEP    30
   LAY   ROW   COL         APPL.Q          ACT.Q        GW-HEAD       CELL-BOT
     1     3    50  -0.869522E+00  -0.281269E+00   0.425615E-03   0.000000E+00
     1     5    55  -0.869522E+00  -0.219956E+00   0.364739E-03   0.000000E+00

            WELLS   PERIOD   50   STEP  30
 WELL      1   LAYER   1   ROW     3   COL    50   RATE   -0.281269    
 WELL      2   LAYER   1   ROW     5   COL    55   RATE   -0.219956    
 

  HEAD DEP BOUNDS   PERIOD   50   STEP    30
 BOUNDARY      1   LAYER   1   ROW     1   COL   100   RATE    1.608013E-02
 BOUNDARY      2   LAYER   1   ROW     2   COL   100   RATE    1.607042E-02
 BOUNDARY      3   LAYER   1   ROW     3   COL   100   RATE    1.588173E-02
 BOUNDARY      4   LAYER   1   ROW     4   COL   100   RATE    1.094574E-02
 BOUNDARY      5   LAYER   1   ROW     5   COL   100   RATE    1.588173E-02
 BOUNDARY      6   LAYER   1   ROW     6   COL   100   RATE    1.607042E-02
 BOUNDARY      7   LAYER   1   ROW     7   COL   100   RATE    1.608013E-02



 STREAM LISTING     PERIOD     50   STEP       30

 LAYER ROW COL. STREAM  RCH.   FLOW INTO    STREAM     FLOW OUT OF   OVRLND.    DIRECT     STREAM      STREAM      STREAM     STREAM  STREAMBED   FLOW TO   CHNG. UNSAT. 
                SEG.NO.  NO.   STRM. RCH.    LOSS       STRM. RCH.   RUNOFF     PRECIP       ET         HEAD        DEPTH      WIDTH  CONDCTNC.   WAT. TAB.

   1    4    1     1     1    9.0000E-01  5.5751E-04   8.9944E-01  0.000E+00  0.000E+00  0.000E+00  1.40554E+02  7.036E-01  2.654E+00  4.632E-04  3.015E-04  2.560E-04
   1    4    2     1     2    8.9944E-01  5.5733E-04   8.9889E-01  0.000E+00  0.000E+00  0.000E+00  1.40253E+02  7.034E-01  2.654E+00  4.631E-04  3.014E-04  2.559E-04
   1    4    3     1     3    8.9889E-01  5.5714E-04   8.9833E-01  0.000E+00  0.000E+00  0.000E+00  1.39953E+02  7.032E-01  2.654E+00  4.631E-04  3.012E-04  2.559E-04
   1    4    4     1     4    8.9833E-01  5.5696E-04   8.9777E-01  0.000E+00  0.000E+00  0.000E+00  1.39653E+02  7.029E-01  2.654E+00  4.630E-04  3.011E-04  2.558E-04
   1    4    5     1     5    8.9777E-01  5.5678E-04   8.9721E-01  0.000E+00  0.000E+00  0.000E+00  1.39353E+02  7.027E-01  2.653E+00  4.629E-04  3.010E-04  2.558E-04
   1    4    6     1     6    8.9721E-01  5.5660E-04   8.9666E-01  0.000E+00  0.000E+00  0.000E+00  1.39053E+02  7.025E-01  2.653E+00  4.629E-04  3.009E-04  2.557E-04
   1    4    7     1     7    8.9666E-01  5.5642E-04   8.9610E-01  0.000E+00  0.000E+00  0.000E+00  1.38752E+02  7.023E-01  2.653E+00  4.628E-04  3.008E-04  2.556E-04
   1    4    8     1     8    8.9610E-01  5.5624E-04   8.9555E-01  0.000E+00  0.000E+00  0.000E+00  1.38452E+02  7.021E-01  2.653E+00  4.627E-04  3.008E-04  2.555E-04
   1    4    9     1     9    8.9555E-01  5.5606E-04   8.9499E-01  0.000E+00  0.000E+00  0.000E+00  1.38152E+02  7.019E-01  2.652E+00  4.627E-04  3.007E-04  2.553E-04
   1    4   10     1    10    8.9499E-01  5.5588E-04   8.9443E-01  0.000E+00  0.000E+00  0.000E+00  1.37852E+02  7.017E-01  2.652E+00  4.626E-04  3.007E-04  2.552E-04
   1    4   11     1    11    8.9443E-01  5.5570E-04   8.9388E-01  0.000E+00  0.000E+00  0.000E+00  1.37551E+02  7.015E-01  2.652E+00  4.625E-04  3.007E-04  2.550E-04
   1    4   12     1    12    8.9388E-01  5.5552E-04   8.9332E-01  0.000E+00  0.000E+00  0.000E+00  1.37251E+02  7.013E-01  2.651E+00  4.625E-04  3.007E-04  2.548E-04
   1    4   13     1    13    8.9332E-01  5.5534E-04   8.9277E-01  0.000E+00  0.000E+00  0.000E+00  1.36951E+02  7.010E-01  2.651E+00  4.624E-04  3.007E-04  2.546E-04
   1    4   14     1    14    8.9277E-01  5.5516E-04   8.9221E-01  0.000E+00  0.000E+00  0.000E+00  1.36651E+02  7.008E-01  2.651E+00  4.623E-04  3.007E-04  2.544E-04
   1    4   15     1    15    8.9221E-01  5.5498E-04   8.9166E-01  0.000E+00  0.000E+00  0.000E+00  1.36351E+02  7.006E-01  2.651E+00  4.622E-04  3.008E-04  2.542E-04
   1    4   16     1    16    8.9166E-01  5.5480E-04   8.9110E-01  0.000E+00  0.000E+00  0.000E+00  1.36050E+02  7.004E-01  2.650E+00  4.622E-04  3.008E-04  2.540E-04
   1    4   17     1    17    8.9110E-01  5.5462E-04   8.9055E-01  0.000E+00  0.000E+00  0.000E+00  1.35750E+02  7.002E-01  2.650E+00  4.621E-04  3.009E-04  2.537E-04
   1    4   18     1    18    8.9055E-01  5.5444E-04   8.8999E-01  0.000E+00  0.000E+00  0.000E+00  1.35450E+02  7.000E-01  2.650E+00  4.620E-04  3.010E-04  2.534E-04
   1    4   19     1    19    8.8999E-01  5.5426E-04   8.8944E-01  0.000E+00  0.000E+00  0.000E+00  1.35150E+02  6.998E-01  2.650E+00  4.620E-04  3.036E-04  2.506E-04
   1    4   20     1    20    8.8944E-01  5.5408E-04   8.8888E-01  0.000E+00  0.000E+00  0.000E+00  1.34850E+02  6.996E-01  2.649E+00  4.619E-04  3.066E-04  2.474E-04
   1    4   21     1    21    8.8888E-01  5.5390E-04   8.8833E-01  0.000E+00  0.000E+00  0.000E+00  1.34549E+02  6.994E-01  2.649E+00  4.618E-04  3.068E-04  2.471E-04
   1    4   22     1    22    8.8833E-01  5.5372E-04   8.8778E-01  0.000E+00  0.000E+00  0.000E+00  1.34249E+02  6.991E-01  2.649E+00  4.618E-04  3.071E-04  2.467E-04
   1    4   23     1    23    8.8778E-01  5.5354E-04   8.8722E-01  0.000E+00  0.000E+00  0.000E+00  1.33949E+02  6.989E-01  2.649E+00  4.617E-04  3.073E-04  2.462E-04
   1    4   24     1    24    8.8722E-01  5.5336E-04   8.8667E-01  0.000E+00  0.000E+00  0.000E+00  1.33649E+02  6.987E-01  2.648E+00  4.616E-04  3.075E-04  2.458E-04
   1    4   25     1    25    8.8667E-01  5.5318E-04   8.8612E-01  0.000E+00  0.000E+00  0.000E+00  1.33349E+02  6.985E-01  2.648E+00  4.616E-04  3.162E-04  2.370E-04
   1    4   26     1    26    8.8612E-01  5.5300E-04   8.8556E-01  0.000E+00  0.000E+00  0.000E+00  1.33048E+02  6.983E-01  2.648E+00  4.615E-04  3.186E-04  2.344E-04
   1    4   27     1    27    8.8556E-01  5.5282E-04   8.8501E-01  0.000E+00  0.000E+00  0.000E+00  1.32748E+02  6.981E-01  2.648E+00  4.614E-04  3.189E-04  2.339E-04
   1    4   28     1    28    8.8501E-01  5.5264E-04   8.8446E-01  0.000E+00  0.000E+00  0.000E+00  1.32448E+02  6.979E-01  2.647E+00  4.613E-04  3.192E-04  2.335E-04
   1    4   29     1    29    8.8446E-01  5.5246E-04   8.8391E-01  0.000E+00  0.000E+00  0.000E+00  1.32148E+02  6.977E-01  2.647E+00  4.613E-04  3.193E-04  2.331E-04
   1    4   30     1    30    8.8391E-01  5.5228E-04   8.8335E-01  0.000E+00  0.000E+00  0.000E+00  1.31847E+02  6.975E-01  2.647E+00  4.612E-04  3.195E-04  2.328E-04
   1    4   31     1    31    8.8335E-01  5.5210E-04   8.8280E-01  0.000E+00  0.000E+00  0.000E+00  1.31547E+02  6.972E-01  2.647E+00  4.611E-04  3.199E-04  2.322E-04
   1    4   32     1    32    8.8280E-01  5.5192E-04   8.8225E-01  0.000E+00  0.000E+00  0.000E+00  1.31247E+02  6.970E-01  2.646E+00  4.611E-04  3.885E-04  1.634E-04
   1    4   33     1    33    8.8225E-01  5.5174E-04   8.8170E-01  0.000E+00  0.000E+00  0.000E+00  1.30947E+02  6.968E-01  2.646E+00  4.610E-04  4.646E-04  8.716E-05
   1    4   34     1    34    8.8170E-01  5.5156E-04   8.8115E-01  0.000E+00  0.000E+00  0.000E+00  1.30647E+02  6.966E-01  2.646E+00  4.609E-04  5.455E-04  6.055E-06
   1    4   35     1    35    8.8115E-01  5.5138E-04   8.8059E-01  0.000E+00  0.000E+00  0.000E+00  1.30346E+02  6.964E-01  2.646E+00  4.609E-04  5.471E-04  4.323E-06
   1    4   36     1    36    8.8059E-01  5.5121E-04   8.8004E-01  0.000E+00  0.000E+00  0.000E+00  1.30046E+02  6.962E-01  2.645E+00  4.608E-04  5.478E-04  3.393E-06
   1    4   37     1    37    8.8004E-01  5.5103E-04   8.7949E-01  0.000E+00  0.000E+00  0.000E+00  1.29746E+02  6.960E-01  2.645E+00  4.607E-04  5.505E-04  5.581E-07
   1    4   38     1    38    8.7949E-01  5.5085E-04   8.7894E-01  0.000E+00  0.000E+00  0.000E+00  1.29446E+02  6.958E-01  2.645E+00  4.607E-04  6.014E-04 -5.057E-05
   1    4   39     1    39    8.7894E-01  5.5067E-04   8.7839E-01  0.000E+00  0.000E+00  0.000E+00  1.29146E+02  6.956E-01  2.645E+00  4.606E-04  6.083E-04 -5.763E-05
   1    4   40     1    40    8.7839E-01  5.5049E-04   8.7784E-01  0.000E+00  0.000E+00  0.000E+00  1.28845E+02  6.954E-01  2.644E+00  4.605E-04  6.094E-04 -5.886E-05
   1    4   41     1    41    8.7784E-01  5.5031E-04   8.7729E-01  0.000E+00  0.000E+00  0.000E+00  1.28545E+02  6.951E-01  2.644E+00  4.605E-04  6.105E-04 -6.015E-05
   1    4   42     1    42    8.7729E-01  5.5013E-04   8.7674E-01  0.000E+00  0.000E+00  0.000E+00  1.28245E+02  6.949E-01  2.644E+00  4.604E-04  6.116E-04 -6.152E-05
   1    4   43     1    43    8.7674E-01  5.4995E-04   8.7619E-01  0.000E+00  0.000E+00  0.000E+00  1.27945E+02  6.947E-01  2.644E+00  4.603E-04  6.129E-04 -6.296E-05
   1    4   44     1    44    8.7619E-01  5.4977E-04   8.7564E-01  0.000E+00  0.000E+00  0.000E+00  1.27645E+02  6.945E-01  2.643E+00  4.602E-04  6.142E-04 -6.443E-05
   1    4   45     1    45    8.7564E-01  5.4959E-04   8.7509E-01  0.000E+00  0.000E+00  0.000E+00  1.27344E+02  6.943E-01  2.643E+00  4.602E-04  6.246E-04 -7.502E-05
   1    4   46     1    46    8.7509E-01  5.4941E-04   8.7454E-01  0.000E+00  0.000E+00  0.000E+00  1.27044E+02  6.941E-01  2.643E+00  4.601E-04  6.254E-04 -7.598E-05
   1    4   47     1    47    8.7454E-01  5.4924E-04   8.7399E-01  0.000E+00  0.000E+00  0.000E+00  1.26744E+02  6.939E-01  2.643E+00  4.600E-04  7.792E-04 -2.299E-04
   1    4   48     1    48    8.7399E-01  5.4906E-04   8.7344E-01  0.000E+00  0.000E+00  0.000E+00  1.26444E+02  6.937E-01  2.642E+00  4.600E-04  9.043E-04 -3.552E-04
   1    4   49     1    49    8.7344E-01  5.4888E-04   8.7289E-01  0.000E+00  0.000E+00  0.000E+00  1.26143E+02  6.935E-01  2.642E+00  4.599E-04  9.087E-04 -3.596E-04
   1    4   50     1    50    8.7289E-01  5.4870E-04   8.7234E-01  0.000E+00  0.000E+00  0.000E+00  1.25843E+02  6.932E-01  2.642E+00  4.598E-04  9.150E-04 -3.661E-04
   1    4   51     1    51    8.7234E-01  5.4852E-04   8.7180E-01  0.000E+00  0.000E+00  0.000E+00  1.25543E+02  6.930E-01  2.642E+00  4.598E-04  9.120E-04 -3.632E-04
   1    4   52     1    52    8.7180E-01  5.4834E-04   8.7125E-01  0.000E+00  0.000E+00  0.000E+00  1.25243E+02  6.928E-01  2.641E+00  4.597E-04  9.112E-04 -3.626E-04
   1    4   53     1    53    8.7125E-01  5.4816E-04   8.7070E-01  0.000E+00  0.000E+00  0.000E+00  1.24943E+02  6.926E-01  2.641E+00  4.596E-04  9.111E-04 -3.627E-04
   1    4   54     1    54    8.7070E-01  5.4798E-04   8.7015E-01  0.000E+00  0.000E+00  0.000E+00  1.24642E+02  6.924E-01  2.641E+00  4.596E-04  9.116E-04 -3.634E-04
   1    4   55     1    55    8.7015E-01  5.4781E-04   8.6960E-01  0.000E+00  0.000E+00  0.000E+00  1.24342E+02  6.922E-01  2.641E+00  4.595E-04  9.140E-04 -3.660E-04
   1    4   56     1    56    8.6960E-01  5.4763E-04   8.6906E-01  0.000E+00  0.000E+00  0.000E+00  1.24042E+02  6.920E-01  2.640E+00  4.594E-04  9.096E-04 -3.617E-04
   1    4   57     1    57    8.6906E-01  5.4745E-04   8.6851E-01  0.000E+00  0.000E+00  0.000E+00  1.23742E+02  6.918E-01  2.640E+00  4.594E-04  9.061E-04 -3.584E-04
   1    4   58     1    58    8.6851E-01  5.4727E-04   8.6796E-01  0.000E+00  0.000E+00  0.000E+00  1.23442E+02  6.916E-01  2.640E+00  4.593E-04  8.038E-04 -2.565E-04
   1    4   59     1    59    8.6796E-01  5.4709E-04   8.6741E-01  0.000E+00  0.000E+00  0.000E+00  1.23141E+02  6.914E-01  2.640E+00  4.592E-04  6.283E-04 -8.123E-05
   1    4   60     1    60    8.6741E-01  5.4691E-04   8.6687E-01  0.000E+00  0.000E+00  0.000E+00  1.22841E+02  6.911E-01  2.639E+00  4.592E-04  6.280E-04 -8.113E-05
   1    4   61     1    61    8.6687E-01  5.4674E-04   8.6632E-01  0.000E+00  0.000E+00  0.000E+00  1.22541E+02  6.909E-01  2.639E+00  4.591E-04  6.271E-04 -8.041E-05
   1    4   62     1    62    8.6632E-01  5.4656E-04   8.6577E-01  0.000E+00  0.000E+00  0.000E+00  1.22241E+02  6.907E-01  2.639E+00  4.590E-04  6.260E-04 -7.947E-05
   1    4   63     1    63    8.6577E-01  5.4638E-04   8.6523E-01  0.000E+00  0.000E+00  0.000E+00  1.21941E+02  6.905E-01  2.639E+00  4.589E-04  6.170E-04 -7.063E-05
   1    4   64     1    64    8.6523E-01  5.4620E-04   8.6468E-01  0.000E+00  0.000E+00  0.000E+00  1.21640E+02  6.903E-01  2.638E+00  4.589E-04  6.156E-04 -6.939E-05
   1    4   65     1    65    8.6468E-01  5.4602E-04   8.6414E-01  0.000E+00  0.000E+00  0.000E+00  1.21340E+02  6.901E-01  2.638E+00  4.588E-04  6.147E-04 -6.864E-05
   1    4   66     1    66    8.6414E-01  5.4585E-04   8.6359E-01  0.000E+00  0.000E+00  0.000E+00  1.21040E+02  6.899E-01  2.638E+00  4.587E-04  6.138E-04 -6.793E-05
   1    4   67     1    67    8.6359E-01  5.4567E-04   8.6304E-01  0.000E+00  0.000E+00  0.000E+00  1.20740E+02  6.897E-01  2.638E+00  4.587E-04  6.129E-04 -6.724E-05
   1    4   68     1    68    8.6304E-01  5.4549E-04   8.6250E-01  0.000E+00  0.000E+00  0.000E+00  1.20439E+02  6.895E-01  2.637E+00  4.586E-04  5.646E-04 -1.914E-05
   1    4   69     1    69    8.6250E-01  5.4531E-04   8.6195E-01  0.000E+00  0.000E+00  0.000E+00  1.20139E+02  6.892E-01  2.637E+00  4.585E-04  5.638E-04 -1.844E-05
   1    4   70     1    70    8.6195E-01  5.4513E-04   8.6141E-01  0.000E+00  0.000E+00  0.000E+00  1.19839E+02  6.890E-01  2.637E+00  4.585E-04  4.629E-04  8.224E-05
   1    4   71     1    71    8.6141E-01  5.4496E-04   8.6086E-01  0.000E+00  0.000E+00  0.000E+00  1.19539E+02  6.888E-01  2.637E+00  4.584E-04  3.419E-04  2.030E-04
   1    4   72     1    72    8.6086E-01  5.4478E-04   8.6032E-01  0.000E+00  0.000E+00  0.000E+00  1.19239E+02  6.886E-01  2.636E+00  4.583E-04  3.298E-04  2.150E-04
   1    4   73     1    73    8.6032E-01  5.4460E-04   8.5977E-01  0.000E+00  0.000E+00  0.000E+00  1.18938E+02  6.884E-01  2.636E+00  4.583E-04  3.300E-04  2.146E-04
   1    4   74     1    74    8.5977E-01  5.4442E-04   8.5923E-01  0.000E+00  0.000E+00  0.000E+00  1.18638E+02  6.882E-01  2.636E+00  4.582E-04  3.299E-04  2.145E-04
   1    4   75     1    75    8.5923E-01  5.4424E-04   8.5869E-01  0.000E+00  0.000E+00  0.000E+00  1.18338E+02  6.880E-01  2.636E+00  4.581E-04  3.299E-04  2.144E-04
   1    4   76     1    76    8.5869E-01  5.4407E-04   8.5814E-01  0.000E+00  0.000E+00  0.000E+00  1.18038E+02  6.878E-01  2.635E+00  4.581E-04  3.298E-04  2.142E-04
   1    4   77     1    77    8.5814E-01  5.4389E-04   8.5760E-01  0.000E+00  0.000E+00  0.000E+00  1.17738E+02  6.876E-01  2.635E+00  4.580E-04  3.298E-04  2.141E-04
   1    4   78     1    78    8.5760E-01  5.4371E-04   8.5705E-01  0.000E+00  0.000E+00  0.000E+00  1.17437E+02  6.874E-01  2.635E+00  4.579E-04  3.298E-04  2.139E-04
   1    4   79     1    79    8.5705E-01  5.4353E-04   8.5651E-01  0.000E+00  0.000E+00  0.000E+00  1.17137E+02  6.871E-01  2.635E+00  4.578E-04  3.299E-04  2.136E-04
   1    4   80     1    80    8.5651E-01  5.4336E-04   8.5597E-01  0.000E+00  0.000E+00  0.000E+00  1.16837E+02  6.869E-01  2.634E+00  4.578E-04  3.300E-04  2.134E-04
   1    4   81     1    81    8.5597E-01  5.4318E-04   8.5542E-01  0.000E+00  0.000E+00  0.000E+00  1.16537E+02  6.867E-01  2.634E+00  4.577E-04  3.301E-04  2.131E-04
   1    4   82     1    82    8.5542E-01  5.4300E-04   8.5488E-01  0.000E+00  0.000E+00  0.000E+00  1.16237E+02  6.865E-01  2.634E+00  4.576E-04  3.214E-04  2.216E-04
   1    4   83     1    83    8.5488E-01  5.4282E-04   8.5434E-01  0.000E+00  0.000E+00  0.000E+00  1.15936E+02  6.863E-01  2.634E+00  4.576E-04  3.215E-04  2.213E-04
   1    4   84     1    84    8.5434E-01  5.4265E-04   8.5379E-01  0.000E+00  0.000E+00  0.000E+00  1.15636E+02  6.861E-01  2.633E+00  4.575E-04  3.138E-04  2.289E-04
   1    4   85     1    85    8.5379E-01  5.4247E-04   8.5325E-01  0.000E+00  0.000E+00  0.000E+00  1.15336E+02  6.859E-01  2.633E+00  4.574E-04  3.140E-04  2.284E-04
   1    4   86     1    86    8.5325E-01  5.4229E-04   8.5271E-01  0.000E+00  0.000E+00  0.000E+00  1.15036E+02  6.857E-01  2.633E+00  4.574E-04  3.144E-04  2.279E-04
   1    4   87     1    87    8.5271E-01  5.4212E-04   8.5217E-01  0.000E+00  0.000E+00  0.000E+00  1.14735E+02  6.855E-01  2.633E+00  4.573E-04  3.147E-04  2.274E-04
   1    4   88     1    88    8.5217E-01  5.4194E-04   8.5163E-01  0.000E+00  0.000E+00  0.000E+00  1.14435E+02  6.853E-01  2.632E+00  4.572E-04  3.150E-04  2.269E-04
   1    4   89     1    89    8.5163E-01  5.4176E-04   8.5108E-01  0.000E+00  0.000E+00  0.000E+00  1.14135E+02  6.850E-01  2.632E+00  4.572E-04  3.154E-04  2.264E-04
   1    4   90     1    90    8.5108E-01  5.4158E-04   8.5054E-01  0.000E+00  0.000E+00  0.000E+00  1.13835E+02  6.848E-01  2.632E+00  4.571E-04  2.956E-04  2.460E-04
   1    4   91     1    91    8.5054E-01  5.4141E-04   8.5000E-01  0.000E+00  0.000E+00  0.000E+00  1.13535E+02  6.846E-01  2.632E+00  4.570E-04  2.206E-04  3.208E-04
   1    4   92     1    92    8.5000E-01  5.4123E-04   8.4946E-01  0.000E+00  0.000E+00  0.000E+00  1.13234E+02  6.844E-01  2.631E+00  4.570E-04  1.565E-04  3.847E-04
   1    4   93     1    93    8.4946E-01  5.4105E-04   8.4892E-01  0.000E+00  0.000E+00  0.000E+00  1.12934E+02  6.842E-01  2.631E+00  4.569E-04  1.574E-04  3.837E-04
   1    4   94     1    94    8.4892E-01  5.4088E-04   8.4838E-01  0.000E+00  0.000E+00  0.000E+00  1.12634E+02  6.840E-01  2.631E+00  4.568E-04  1.584E-04  3.825E-04
   1    4   95     1    95    8.4838E-01  5.4070E-04   8.4784E-01  0.000E+00  0.000E+00  0.000E+00  1.12334E+02  6.838E-01  2.631E+00  4.568E-04  1.593E-04  3.814E-04
   1    4   96     1    96    8.4784E-01  5.4052E-04   8.4730E-01  0.000E+00  0.000E+00  0.000E+00  1.12034E+02  6.836E-01  2.630E+00  4.567E-04  1.603E-04  3.802E-04
   1    4   97     1    97    8.4730E-01  5.4035E-04   8.4676E-01  0.000E+00  0.000E+00  0.000E+00  1.11733E+02  6.834E-01  2.630E+00  4.566E-04  1.613E-04  3.790E-04
   1    4   98     1    98    8.4676E-01  5.4017E-04   8.4622E-01  0.000E+00  0.000E+00  0.000E+00  1.11433E+02  6.832E-01  2.630E+00  4.565E-04  1.625E-04  3.777E-04
   1    4   99     1    99    8.4622E-01  5.3999E-04   8.4568E-01  0.000E+00  0.000E+00  0.000E+00  1.11133E+02  6.830E-01  2.630E+00  4.565E-04  1.636E-04  3.764E-04
   1    4  100     1   100    8.4568E-01  5.3982E-04   8.4514E-01  0.000E+00  0.000E+00  0.000E+00  1.10833E+02  6.827E-01  2.629E+00  4.564E-04  1.647E-04  3.751E-04



1
  VOLUMETRIC BUDGET FOR UNSATURATED ZONE BENEATH STREAMS AT END OF TIME STEP    30 STRESS PERIOD  50
  ------------------------------------------------------------------------------------------------

    CUMULATIVE VOLUMES             L**3    RATES FOR THIS TIME STEP         L**3/T
    ------------------                     ------------------------


          STREAM LOSS =     35725148.0000            STREAM LOSS =        5.4863E-02
    CHANGE IN STORAGE =      1103134.8750      CHANGE IN STORAGE =        1.0823E-02
       RECHARGE TO GW =     34631516.0000         RECHARGE TO GW =        4.4042E-02

             TOTAL IN =     35725148.0000               TOTAL IN =        5.4863E-02

            TOTAL OUT =     35734652.0000              TOTAL OUT =        5.4865E-02

             IN - OUT =        -9504.0000               IN - OUT =       -1.9521E-06

  PERCENT DISCREPANCY =           -0.01      PERCENT DISCREPANCY =            -0.00



1
              HEAD IN LAYER   1 AT END OF TIME STEP  30 IN STRESS PERIOD   50
  ---------------------------------------------------------------------------

          1      2      3      4      5      6      7      8      9     10
         11     12     13     14     15     16     17     18     19     20
         21     22     23     24     25     26     27     28     29     30
         31     32     33     34     35     36     37     38     39     40
         41     42     43     44     45     46     47     48     49     50
         51     52     53     54     55     56     57     58     59     60
         61     62     63     64     65     66     67     68     69     70
         71     72     73     74     75     76     77     78     79     80
         81     82     83     84     85     86     87     88     89     90
         91     92     93     94     95     96     97     98     99    100
 .........................................................................
   1    79.8   79.7   79.7   79.6   79.4   79.2   79.0   78.8   78.5   78.1
        77.8   77.4   76.9   76.4   75.9   75.3   74.7   74.1   73.4   72.7
        71.9   71.1   70.2   69.3   68.3   67.3   66.2   65.1   63.9   62.7
        61.4   60.0   58.6   57.1   55.5   53.8   52.0   50.1   48.1   46.0
        43.8   41.4   38.8   36.0   32.9   29.5   25.6   21.0   15.3    8.8
         8.0    8.3    8.6    9.3   11.1   14.8   18.8   22.4   25.7   28.6
        31.2   33.7   35.9   38.0   40.0   41.8   43.6   45.2   46.8   48.3
        49.7   51.1   52.4   53.6   54.8   56.0   57.1   58.2   59.2   60.2
        61.2   62.1   63.0   63.9   64.7   65.5   66.3   67.1   67.8   68.6
        69.3   70.0   70.6   71.3   71.9   72.6   73.2   73.8   74.4   75.0
   2    79.8   79.7   79.7   79.6   79.4   79.2   79.0   78.8   78.5   78.1
        77.8   77.4   76.9   76.4   75.9   75.3   74.7   74.1   73.4   72.7
        71.9   71.1   70.2   69.3   68.3   67.3   66.2   65.1   63.9   62.7
        61.4   60.0   58.6   57.1   55.5   53.8   52.0   50.1   48.1   46.0
        43.8   41.4   38.8   36.0   32.9   29.5   25.6   21.0   15.0    6.7
         7.7    8.3    8.5    9.0   10.5   14.6   18.7   22.4   25.7   28.6
        31.2   33.7   35.9   38.0   40.0   41.8   43.6   45.2   46.8   48.3
        49.7   51.1   52.4   53.6   54.8   56.0   57.1   58.2   59.2   60.2
        61.2   62.1   63.0   63.9   64.7   65.5   66.3   67.1   67.8   68.6
        69.3   70.0   70.6   71.3   71.9   72.6   73.2   73.8   74.4   75.0
   3    79.8   79.7   79.7   79.6   79.4   79.2   79.0   78.8   78.5   78.1
        77.8   77.4   76.9   76.4   75.9   75.3   74.7   74.1   73.4   72.7
        71.9   71.1   70.2   69.3   68.3   67.3   66.2   65.1   63.9   62.7
        61.4   60.0   58.6   57.1   55.5   53.8   52.0   50.1   48.2   46.0
        43.8   41.4   38.8   36.0   32.9   29.5   25.6   21.0   14.7    0.0
         7.5    8.3    8.4    8.3    8.9   14.0   18.6   22.4   25.6   28.6
        31.2   33.7   35.9   38.0   40.0   41.8   43.6   45.2   46.8   48.3
        49.7   51.1   52.4   53.6   54.8   56.0   57.1   58.2   59.2   60.2
        61.2   62.1   63.0   63.9   64.7   65.5   66.3   67.1   67.8   68.6
        69.3   70.0   70.6   71.3   71.9   72.6   73.2   73.8   74.4   75.0
   4    79.8   79.7   79.7   79.6   79.4   79.2   79.0   78.8   78.5   78.1
        77.8   77.4   76.9   76.4   75.9   75.3   74.7   74.1   73.4   72.7
        71.9   71.1   70.2   69.3   68.3   67.3   66.2   65.1   63.9   62.7
        61.4   60.0   58.6   57.1   55.5   53.8   52.0   50.1   48.2   46.0
        43.8   41.4   38.8   36.0   32.9   29.5   25.7   21.2   15.4    6.9
         8.3    8.5    8.3    7.7    6.1   13.4   18.4   22.3   25.6   28.6
        31.2   33.7   35.9   38.0   40.0   41.8   43.6   45.2   46.8   48.3
        49.7   51.1   52.4   53.6   54.8   56.0   57.1   58.2   59.2   60.2
        61.2   62.1   63.0   63.9   64.7   65.5   66.3   67.1   67.8   68.6
        69.3   70.0   70.6   71.3   71.9   72.6   73.2   73.8   74.4   75.0
   5    79.8   79.7   79.7   79.6   79.4   79.2   79.0   78.8   78.5   78.1
        77.8   77.4   76.9   76.4   75.9   75.3   74.7   74.1   73.4   72.7
        71.9   71.1   70.2   69.3   68.3   67.3   66.2   65.1   63.9   62.7
        61.4   60.0   58.6   57.1   55.5   53.8   52.0   50.1   48.2   46.0
        43.8   41.4   38.8   36.0   32.9   29.5   25.7   21.3   16.1   10.1
         9.0    8.7    8.2    7.0    0.0   12.8   18.3   22.3   25.6   28.6
        31.2   33.7   35.9   38.0   40.0   41.8   43.6   45.2   46.8   48.3
        49.7   51.1   52.4   53.6   54.8   56.0   57.1   58.2   59.2   60.2
        61.2   62.1   63.0   63.9   64.7   65.5   66.3   67.1   67.8   68.6
        69.3   70.0   70.6   71.3   71.9   72.6   73.2   73.8   74.4   75.0
   6    79.8   79.7   79.7   79.6   79.4   79.2   79.0   78.8   78.5   78.1
        77.8   77.4   76.9   76.4   75.9   75.3   74.7   74.1   73.4   72.7
        71.9   71.1   70.2   69.3   68.3   67.3   66.2   65.1   63.9   62.7
        61.4   60.0   58.6   57.1   55.5   53.8   52.0   50.1   48.1   46.0
        43.8   41.4   38.8   36.0   32.9   29.6   25.8   21.5   16.7   11.8
         9.8    8.9    8.2    7.2    5.9   13.1   18.2   22.2   25.6   28.6
        31.2   33.7   35.9   38.0   40.0   41.8   43.6   45.2   46.8   48.3
        49.7   51.1   52.4   53.6   54.8   56.0   57.1   58.2   59.2   60.2
        61.2   62.1   63.0   63.9   64.7   65.5   66.3   67.1   67.8   68.6
        69.3   70.0   70.6   71.3   71.9   72.6   73.2   73.8   74.4   75.0
   7    79.8   79.7   79.7   79.6   79.4   79.2   79.0   78.8   78.5   78.1
        77.8   77.4   76.9   76.4   75.9   75.3   74.7   74.1   73.4   72.7
        71.9   71.1   70.2   69.3   68.3   67.3   66.2   65.1   63.9   62.7
        61.4   60.0   58.6   57.1   55.5   53.8   52.0   50.1   48.1   46.0
        43.8   41.4   38.8   36.0   32.9   29.6   25.8   21.6   17.0   12.6
        10.1    9.0    8.2    7.5    7.8   13.3   18.2   22.2   25.6   28.6
        31.2   33.7   35.9   38.0   40.0   41.8   43.6   45.2   46.8   48.3
        49.7   51.1   52.4   53.6   54.8   56.0   57.1   58.2   59.2   60.2
        61.2   62.1   63.0   63.9   64.7   65.5   66.3   67.1   67.8   68.6
        69.3   70.0   70.6   71.3   71.9   72.6   73.2   73.8   74.4   75.0

 HEAD WILL BE SAVED ON UNIT   51 AT END OF TIME STEP   30, STRESS PERIOD   50
1
  VOLUMETRIC BUDGET FOR ENTIRE MODEL AT END OF TIME STEP   30, STRESS PERIOD  50
  ------------------------------------------------------------------------------

     CUMULATIVE VOLUMES      L**3       RATES FOR THIS TIME STEP      L**3/T
     ------------------                 ------------------------

           IN:                                      IN:
           ---                                      ---
             STORAGE     =   118953840.0000               STORAGE     =           0.3502
       CONSTANT HEAD     =           0.0000         CONSTANT HEAD     =           0.0000
               WELLS     =           0.0000                 WELLS     =           0.0000
     HEAD DEP BOUNDS     =     4257820.5000       HEAD DEP BOUNDS     =           0.1070
      STREAM LEAKAGE     =    34631220.0000        STREAM LEAKAGE     =       4.4042E-02

                TOTAL IN =   157842880.0000                  TOTAL IN =           0.5012

          OUT:                                     OUT:
          ----                                     ----
             STORAGE     =     3106051.0000               STORAGE     =           0.0000
       CONSTANT HEAD     =           0.0000         CONSTANT HEAD     =           0.0000
               WELLS     =   138377520.0000                 WELLS     =           0.5012
     HEAD DEP BOUNDS     =    16359348.0000       HEAD DEP BOUNDS     =           0.0000
      STREAM LEAKAGE     =           0.0000        STREAM LEAKAGE     =           0.0000

               TOTAL OUT =   157842912.0000                 TOTAL OUT =           0.5012

                IN - OUT =         -32.0000                  IN - OUT =           0.0000

     PERCENT DISCREPANCY =          -0.00         PERCENT DISCREPANCY =           0.00






         TIME SUMMARY AT END OF TIME STEP   30 IN STRESS PERIOD   50
                    SECONDS     MINUTES      HOURS       DAYS        YEARS
                    -----------------------------------------------------------
   TIME STEP LENGTH 2.49961E+05  4166.0      69.434      2.8931     7.92080E-03
 STRESS PERIOD TIME 2.59200E+06  43200.      720.00      30.000     8.21355E-02
         TOTAL TIME 1.29600E+08 2.16000E+06  36000.      1500.0      4.1068    
1

 Run end date and time (yyyy/mm/dd hh:mm:ss): 2020/03/03 10:40:04
 Elapsed run time: 27.867 Seconds

