                                  MODFLOW-NWT-SWR1 
      U.S. GEOLOGICAL SURVEY MODULAR FINITE-DIFFERENCE GROUNDWATER-FLOW MODEL
                            VERSION 1.1.2, 9/15/2016
                    BASED ON MODFLOW-2005 VERSION 1.11.00 08/30/2013

 LIST FILE: .\Uzf_testoptions\UZFtestoptions.lst
                         UNIT    9

 OPENING .\Uzf_testoptions\UZFtestoptions.ba6
 FILE TYPE:BAS6   UNIT   75   STATUS:OLD    
 FORMAT:FORMATTED              ACCESS:SEQUENTIAL          

 OPENING .\Uzf_testoptions\UZFtestoptions.upw
 FILE TYPE:UPW   UNIT    7   STATUS:OLD    
 FORMAT:FORMATTED              ACCESS:SEQUENTIAL          

 OPENING .\Uzf_testoptions\UZFtestoptions.dis
 FILE TYPE:DIS   UNIT    8   STATUS:OLD    
 FORMAT:FORMATTED              ACCESS:SEQUENTIAL          

 OPENING .\Uzf_testoptions\UZFtestoptions.nwt
 FILE TYPE:NWT   UNIT   13   STATUS:OLD    
 FORMAT:FORMATTED              ACCESS:SEQUENTIAL          

 OPENING .\Uzf_testoptions\UZFtestoptions.oc
 FILE TYPE:OC   UNIT   14   STATUS:OLD    
 FORMAT:FORMATTED              ACCESS:SEQUENTIAL          

 OPENING .\Uzf_testoptions\UZFtestoptions.sfr
 FILE TYPE:SFR   UNIT   15   STATUS:OLD    
 FORMAT:FORMATTED              ACCESS:SEQUENTIAL          

 OPENING .\Uzf_testoptions\UZFtestoptions.wel
 FILE TYPE:WEL   UNIT   16   STATUS:OLD    
 FORMAT:FORMATTED              ACCESS:SEQUENTIAL          

 OPENING .\Uzf_testoptions\UZFtestoptions.ghb
 FILE TYPE:GHB   UNIT   17   STATUS:OLD    
 FORMAT:FORMATTED              ACCESS:SEQUENTIAL          

 OPENING .\Uzf_testoptions\UZFtestoptions.uzf
 FILE TYPE:UZF   UNIT   19   STATUS:OLD    
 FORMAT:FORMATTED              ACCESS:SEQUENTIAL          

 OPENING .\Uzf_testoptions\UZFtestoptions.gag
 FILE TYPE:GAGE   UNIT   32   STATUS:OLD    
 FORMAT:FORMATTED              ACCESS:SEQUENTIAL          

 OPENING .\Uzf_testoptions\UZFtestoptions.out
 FILE TYPE:DATA   UNIT   58   STATUS:UNKNOWN
 FORMAT:FORMATTED              ACCESS:SEQUENTIAL          

 OPENING .\Uzf_testoptions\UZFtestoptions.uzfot
 FILE TYPE:DATA(BINARY)   UNIT   61   STATUS:UNKNOWN
 FORMAT:BINARY                 ACCESS:SEQUENTIAL          

 OPENING .\Uzf_testoptions\netfluxin.unf
 FILE TYPE:DATA(BINARY)   UNIT  100   STATUS:UNKNOWN
 FORMAT:BINARY                 ACCESS:SEQUENTIAL          

 OPENING .\Uzf_testoptions\netfluxout.unf
 FILE TYPE:DATA(BINARY)   UNIT  101   STATUS:UNKNOWN
 FORMAT:BINARY                 ACCESS:SEQUENTIAL          

 OPENING .\Uzf_testoptions\UZFtestoptions.uzf1
 FILE TYPE:DATA   UNIT   65   STATUS:UNKNOWN
 FORMAT:FORMATTED              ACCESS:SEQUENTIAL          

 OPENING .\Uzf_testoptions\UZFtestoptions.uzf2
 FILE TYPE:DATA   UNIT   66   STATUS:UNKNOWN
 FORMAT:FORMATTED              ACCESS:SEQUENTIAL          

 OPENING .\Uzf_testoptions\UZFtestoptions.uzf3
 FILE TYPE:DATA   UNIT   67   STATUS:UNKNOWN
 FORMAT:FORMATTED              ACCESS:SEQUENTIAL          

 OPENING .\Uzf_testoptions\UZFtestoptions.uzf4
 FILE TYPE:DATA   UNIT   68   STATUS:UNKNOWN
 FORMAT:FORMATTED              ACCESS:SEQUENTIAL          

 OPENING .\Uzf_testoptions\UZFtestoptions.flw
 FILE TYPE:DATA   UNIT   81   STATUS:UNKNOWN
 FORMAT:FORMATTED              ACCESS:SEQUENTIAL          

 OPENING .\Uzf_testoptions\UZFtestoptions.sg1
 FILE TYPE:DATA   UNIT   83   STATUS:UNKNOWN
 FORMAT:FORMATTED              ACCESS:SEQUENTIAL          

 OPENING .\Uzf_testoptions\UZFtestoptions.sg2
 FILE TYPE:DATA   UNIT   84   STATUS:UNKNOWN
 FORMAT:FORMATTED              ACCESS:SEQUENTIAL          

 OPENING .\Uzf_testoptions\UZFtestoptions.sg3
 FILE TYPE:DATA   UNIT   85   STATUS:UNKNOWN
 FORMAT:FORMATTED              ACCESS:SEQUENTIAL          

 OPENING .\Uzf_testoptions\UZFtestoptions.sg4
 FILE TYPE:DATA   UNIT   86   STATUS:UNKNOWN
 FORMAT:FORMATTED              ACCESS:SEQUENTIAL          

 OPENING .\Uzf_testoptions\UZFtestoptions.sg5
 FILE TYPE:DATA   UNIT   87   STATUS:UNKNOWN
 FORMAT:FORMATTED              ACCESS:SEQUENTIAL          

 OPENING .\Uzf_testoptions\UZFtestoptions.sg6
 FILE TYPE:DATA   UNIT   88   STATUS:UNKNOWN
 FORMAT:FORMATTED              ACCESS:SEQUENTIAL          

 OPENING .\Uzf_testoptions\UZFtestoptions.sg7
 FILE TYPE:DATA   UNIT   89   STATUS:UNKNOWN
 FORMAT:FORMATTED              ACCESS:SEQUENTIAL          

 OPENING .\Uzf_testoptions\UZFtestoptions.sg8
 FILE TYPE:DATA   UNIT   90   STATUS:UNKNOWN
 FORMAT:FORMATTED              ACCESS:SEQUENTIAL          

 OPENING .\Uzf_testoptions\UZFtestoptions.sg9
 FILE TYPE:DATA   UNIT   91   STATUS:UNKNOWN
 FORMAT:FORMATTED              ACCESS:SEQUENTIAL          

 BAS -- BASIC PACKAGE, VERSION 1.1.2, 9/15/2016 INPUT READ FROM UNIT   75
 
 MODFLOW was compiled using mixed precision
 Precision of REAL variables:           6
 Precision of DOUBLE PRECISION variables:          15

 DISCRETIZATION INPUT DATA READ FROM UNIT    8
 #Test problem 2-- Discretization input
 #Example problem using the UZF1 Package
    1 LAYERS        15 ROWS        10 COLUMNS
   12 STRESS PERIOD(S) IN SIMULATION
 MODEL TIME UNIT IS SECONDS
 MODEL LENGTH UNIT IS FEET
  Confining bed flag for each layer:
   0

                     DELR =   5000.00    

                     DELC =   5000.00    



           TOP ELEVATION OF LAYER 1
 READING ON UNIT    8 WITH FORMAT: (10F7.0)            

            1           2           3           4           5           6           7           8           9          10
 ........................................................................................................................
   1    1105.       1105.       0.000       0.000       0.000       0.000       0.000       0.000       0.000       0.000    
   2    1105.       1095.       1105.       0.000       0.000       1100.       1100.       1110.       0.000       0.000    
   3    0.000       1100.       1085.       1080.       1078.       1076.       1073.       1090.       0.000       0.000    
   4    1110.       1100.       1090.       1085.       1076.       1080.       1080.       1070.       1100.       0.000    
   5    1110.       1100.       1085.       1080.       1078.       1074.       1077.       1066.       1075.       1080.    
   6    1105.       1095.       1080.       1077.       1073.       1069.       1070.       1063.       1085.       1095.    
   7    1105.       1090.       1075.       1072.       1070.       1065.       1065.       1069.       1090.       0.000    
   8    0.000       1080.       1070.       1068.       1063.       1060.       1063.       1067.       1090.       0.000    
   9    0.000       1075.       1065.       1062.       1058.       1052.       1055.       1065.       1090.       0.000    
  10    0.000       1070.       1060.       1055.       1046.       1046.       1044.       1060.       1088.       1100.    
  11    0.000       1055.       1050.       1045.       1041.       1042.       1040.       1050.       1075.       0.000    
  12    1027.       1028.       1028.       1032.       1032.       1033.       1032.       1040.       1060.       0.000    
  13    997.0       1004.       1008.       1014.       1020.       1027.       1032.       1038.       1050.       0.000    
  14    0.000       1030.       1040.       1045.       1050.       1050.       1050.       1050.       1044.       0.000    
  15    0.000       0.000       1080.       1080.       1080.       1080.       0.000       0.000       0.000       0.000    



             MODEL LAYER BOTTOM EL. FOR LAYER   1
 READING ON UNIT    8 WITH FORMAT: (10F7.0)            

            1           2           3           4           5           6           7           8           9          10
 ........................................................................................................................
   1    1000.       1000.       0.000       0.000       0.000       0.000       0.000       0.000       0.000       0.000    
   2    1000.       900.0       900.0       0.000       0.000       950.0       950.0       950.0       0.000       0.000    
   3    0.000       850.0       670.0       680.0       680.0       770.0       770.0       890.0       0.000       0.000    
   4    925.0       850.0       650.0       650.0       650.0       680.0       740.0       850.0       950.0       0.000    
   5    925.0       800.0       650.0       600.0       600.0       600.0       650.0       720.0       850.0       950.0    
   6    925.0       800.0       650.0       600.0       550.0       600.0       650.0       720.0       850.0       970.0    
   7    925.0       800.0       650.0       600.0       550.0       600.0       650.0       720.0       950.0       0.000    
   8    0.000       850.0       700.0       650.0       570.0       600.0       700.0       850.0       950.0       0.000    
   9    0.000       850.0       700.0       650.0       540.0       580.0       700.0       850.0       950.0       0.000    
  10    0.000       850.0       700.0       630.0       530.0       580.0       650.0       800.0       900.0       950.0    
  11    0.000       850.0       700.0       620.0       580.0       620.0       700.0       800.0       900.0       0.000    
  12    900.0       830.0       710.0       640.0       600.0       650.0       700.0       800.0       900.0       0.000    
  13    900.0       810.0       750.0       700.0       650.0       700.0       750.0       800.0       900.0       0.000    
  14    0.000       950.0       850.0       850.0       850.0       850.0       850.0       850.0       850.0       0.000    
  15    0.000       0.000       950.0       950.0       950.0       950.0       0.000       0.000       0.000       0.000    


 STRESS PERIOD     LENGTH       TIME STEPS     MULTIPLIER FOR DELT    SS FLAG
 ----------------------------------------------------------------------------
        1         2628000.          1                    1.000         SS
        2         2628000.         15                    1.100         TR
        3         2628000.         15                    1.100         TR
        4         2628000.         15                    1.100         TR
        5         2628000.         15                    1.100         TR
        6         2628000.         15                    1.100         TR
        7         2628000.         15                    1.100         TR
        8         2628000.         15                    1.100         TR
        9         2628000.         15                    1.100         TR
       10         2628000.         15                    1.100         TR
       11         2628000.         15                    1.100         TR
       12         2628000.         15                    1.100         TR

 COMBINED STEADY-STATE AND TRANSIENT SIMULATION



 
 #Test Simulation 2-- Example problem using the UZF1 Package                     
 #Modified from example Problem 1 of SFR1 documentation report                   
 THE FREE FORMAT OPTION HAS BEEN SELECTED



                     BOUNDARY ARRAY FOR LAYER   1
 READING ON UNIT   75 WITH FORMAT: (20I4)              

                1           2           3           4           5           6           7           8           9          10
 ............................................................................................................................
   1            1           1           0           0           0           0           0           0           0           0
   2            1           1           1           0           0           1           1           1           0           0
   3            0           1           1           1           1           1           1           1           0           0
   4            1           1           1           1           1           1           1           1           1           0
   5            1           1           1           1           1           1           1           1           1           1
   6            1           1           1           1           1           1           1           1           1           1
   7            1           1           1           1           1           1           1           1           1           0
   8            0           1           1           1           1           1           1           1           1           0
   9            0           1           1           1           1           1           1           1           1           0
  10            0           1           1           1           1           1           1           1           1           1
  11            0           1           1           1           1           1           1           1           1           0
  12            1           1           1           1           1           1           1           1           1           0
  13            1           1           1           1           1           1           1           1           1           0
  14            0           1           1           1           1           1           1           1           1           0
  15            0           0           1           1           1           1           0           0           0           0

 AQUIFER HEAD WILL BE SET TO   6999.0     AT ALL NO-FLOW NODES (IBOUND=0).



                       INITIAL HEAD FOR LAYER   1
 READING ON UNIT   75 WITH FORMAT: (10F8.0)            

            1           2           3           4           5           6           7           8           9          10
 ........................................................................................................................
   1    1093.       1089.       6999.       6999.       6999.       6999.       6999.       6999.       6999.       6999.    
   2    1090.       1087.       1081.       6999.       6999.       1072.       1071.       1071.       6999.       6999.    
   3    6999.       1079.       1078.       1074.       1072.       1071.       1069.       1068.       6999.       6999.    
   4    1069.       1071.       1070.       1067.       1065.       1064.       1064.       1066.       1066.       6999.    
   5    1065.       1064.       1063.       1062.       1061.       1061.       1060.       1062.       1066.       1068.    
   6    1060.       1058.       1057.       1056.       1056.       1057.       1057.       1059.       1062.       1066.    
   7    1056.       1053.       1052.       1051.       1051.       1052.       1053.       1055.       1056.       6999.    
   8    6999.       1046.       1046.       1046.       1046.       1046.       1048.       1050.       1050.       6999.    
   9    6999.       1039.       1039.       1039.       1040.       1041.       1042.       1043.       1044.       6999.    
  10    6999.       1031.       1032.       1033.       1034.       1035.       1037.       1038.       1039.       1042.    
  11    6999.       1021.       1023.       1027.       1029.       1030.       1032.       1034.       1036.       6999.    
  12    1001.       1009.       1015.       1020.       1023.       1026.       1029.       1030.       1034.       6999.    
  13    994.5      1000.0       1007.       1013.       1019.       1024.       1029.       1034.       1036.       6999.    
  14    6999.       1004.       1009.       1014.       1019.       1024.       1029.       1035.       1039.       6999.    
  15    6999.       6999.       1012.       1015.       1019.       1022.       6999.       6999.       6999.       6999.    

 OUTPUT CONTROL IS SPECIFIED ONLY AT TIME STEPS FOR WHICH OUTPUT IS DESIRED
 HEADS WILL BE SAVED WITH FORMAT: (10F10.3)           
 SAVED HEADS WILL BE LABELED
 HEAD PRINT FORMAT CODE IS   4    DRAWDOWN PRINT FORMAT CODE IS   0
 HEADS WILL BE SAVED ON UNIT   58    DRAWDOWNS WILL BE SAVED ON UNIT    0
 # NWT Input File
 # Test Problem 3 for MODFLOW-NWT
 #HEADTOL  FLUXTOL MAXITEROUT THICKFACT LINMETH IPRNWT IBOTAV OPTIONS DBDREDUCE DBDINCREASE DBDGAMMA MOMFACT BACKFLAG MAXBACKITER BACKTOL BACKREDUCE

 NWT1 -- Newton Solver, VERSION 1.1.2, 9/15/2016
         INPUT READ FROM UNIT 13

 SPECIFIED OPTION:
 SOLVER INPUT VALUES ARE SPECIFIED BY USER
 ***XMD linear solver will be used***
 
   CONVERGENCE CRITERION OF   0.100000E-03 FOR HEAD SOLUTION
   AND A TOLERANCE OF   0.100000E+03 FOR FLOW SOLUTION AND 
   A MAXIMUM OF   200 OUTER ITERATIONS. 


   D-B-D REDUCTION FACTOR OF    0.990000E+00 AND 
   A D-B-D INCREASE FACTOR OF    0.100000E-04 AND 
   A D-B-D RELAXATION OF    0.000000E+00 AND 
   A MOMENTUM FACTOR OF    0.100000E+00 .


 ***BACKTRACKING IS INACTIVE***
 XMD -- LINEAR SOLUTION BY XMD PACKAGE VERSION 1.30
     BY MOTOMU IBARAKI, OHIO STATE UNIVERSITY, COLOMBUS, OH
                 INPUT READ FROM UNIT 13
 ACCELERATION METHOD                    (IACL) =         2
 NODE ORDERING FLAG                   (NORDER) =         0
 LEVEL OF FILL                         (LEVEL) =         1
 MAXIMUM NUMBER OF ORTHOGONALIZATIONS  (NORTH) =        15
 INDEX FOR USING REDUCED SYSTEM      (IREDSYS) =         1
 RESID. REDUCTION CONVERGE CRITERION  (RRCTOL) =  0.000000E+00
 INDEX FOR USING DROP TOLERANCE     (IDROPTOL) =         1
 DROP TOLERANCE VALUE                  (EPSRN) =  0.500000E-02
 CONVERGENCE CRITERIA OF           (HCLOSEXMD) =  0.100000E-03
 MAX. NUMBER OF LINEAR ITERATIONS  (MXITERXMD) =        50


 UPW1 -- UPSTREAM WEIGHTING FLOW PACKAGE, VERSION 1.1.2, 9/15/2016
         INPUT READ FROM UNIT  7

 #Layer-Property Flow Package input for test simulation 2
 No named parameters

   LAYER FLAGS:
 LAYER       LAYTYP          LAYAVG    CHANI           LAYVKA           LAYWET
 ---------------------------------------------------------------------------
    1             1             0     1.000E+00             0             0

   INTERPRETATION OF LAYER FLAGS:
                        INTERBLOCK     HORIZONTAL    DATA IN
         LAYER TYPE   TRANSMISSIVITY   ANISOTROPY   ARRAY VKA   WETTABILITY
 LAYER   (LAYTYP)        (LAYAVG)      (CHANI)     (LAYVKA)       (LAYWET)
 ---------------------------------------------------------------------------
    1   CONVERTIBLE      HARMONIC     1.000E+00    VERTICAL K  NON-WETTABLE



              HYD. COND. ALONG ROWS FOR LAYER   1
 READING ON UNIT    7 WITH FORMAT: (10F5.0)            

            1           2           3           4           5           6           7           8           9          10
 ........................................................................................................................
   1   2.0000E-03  2.0000E-03   0.000       0.000       0.000       0.000       0.000       0.000       0.000       0.000    
   2   4.0000E-04  2.0000E-03  2.0000E-03   0.000       0.000      4.0000E-04  4.0000E-04  4.0000E-04   0.000       0.000    
   3    0.000      4.0000E-04  2.0000E-03  2.0000E-03  4.0000E-04  4.0000E-04  4.0000E-04  4.0000E-04   0.000       0.000    
   4   4.0000E-04  4.0000E-04  4.0000E-04  2.0000E-03  2.0000E-03  2.0000E-03  4.0000E-04  4.0000E-04  4.0000E-04   0.000    
   5   4.0000E-04  4.0000E-04  4.0000E-04  2.0000E-03  2.0000E-03  2.0000E-03  2.0000E-03  2.0000E-03  2.0000E-03  2.0000E-03
   6   4.0000E-04  4.0000E-04  4.0000E-04  2.0000E-03  2.0000E-03  2.0000E-03  2.0000E-03  2.0000E-03  4.0000E-04  4.0000E-04
   7   4.0000E-04  4.0000E-04  4.0000E-04  2.0000E-03  2.0000E-03  2.0000E-03  2.0000E-03  2.0000E-03  4.0000E-04   0.000    
   8    0.000      4.0000E-04  4.0000E-04  2.0000E-03  2.0000E-03  2.0000E-03  2.0000E-03  4.0000E-04  4.0000E-04   0.000    
   9    0.000      4.0000E-04  4.0000E-04  2.0000E-03  2.0000E-03  2.0000E-03  2.0000E-03  4.0000E-04  4.0000E-04   0.000    
  10    0.000      4.0000E-04  4.0000E-04  2.0000E-03  2.0000E-03  2.0000E-03  2.0000E-03  4.0000E-04  4.0000E-04  4.0000E-04
  11    0.000      4.0000E-04  4.0000E-04  2.0000E-03  2.0000E-03  2.0000E-03  2.0000E-03  4.0000E-04  4.0000E-04   0.000    
  12   4.0000E-04  4.0000E-04  2.0000E-03  2.0000E-03  2.0000E-03  2.0000E-03  2.0000E-03  4.0000E-04  4.0000E-04   0.000    
  13   2.0000E-03  2.0000E-03  2.0000E-03  2.0000E-03  2.0000E-03  2.0000E-03  2.0000E-03  2.0000E-03  2.0000E-03   0.000    
  14    0.000      4.0000E-04  4.0000E-04  4.0000E-04  4.0000E-04  4.0000E-04  4.0000E-04  4.0000E-04  2.0000E-03   0.000    
  15    0.000       0.000      4.0000E-04  4.0000E-04  4.0000E-04  4.0000E-04   0.000       0.000       0.000       0.000    

      VERTICAL HYD. COND. =  1.000000E-06 FOR LAYER   1

         SPECIFIC STORAGE =  1.000000E-06 FOR LAYER   1



                     SPECIFIC YIELD FOR LAYER   1
 READING ON UNIT    7 WITH FORMAT: (10F5.0)            

            1           2           3           4           5           6           7           8           9          10
 ........................................................................................................................
   1   0.2000      0.2000       0.000       0.000       0.000       0.000       0.000       0.000       0.000       0.000    
   2   0.1000      0.2000      0.2000       0.000       0.000      0.1000      0.1000      0.1000       0.000       0.000    
   3    0.000      0.1000      0.2000      0.2000      0.1000      0.1000      0.1000      0.1000       0.000       0.000    
   4   0.1000      0.1000      0.1000      0.2000      0.2000      0.2000      0.1000      0.1000      0.1000       0.000    
   5   0.1000      0.1000      0.1000      0.2000      0.2000      0.2000      0.2000      0.2000      0.2000      0.2000    
   6   0.1000      0.1000      0.1000      0.2000      0.2000      0.2000      0.2000      0.2000      0.1000      0.1000    
   7   0.1000      0.1000      0.1000      0.2000      0.2000      0.2000      0.2000      0.2000      0.1000       0.000    
   8    0.000      0.1000      0.1000      0.2000      0.2000      0.2000      0.2000      0.1000      0.1000       0.000    
   9    0.000      0.1000      0.1000      0.2000      0.2000      0.2000      0.2000      0.1000      0.1000       0.000    
  10    0.000      0.1000      0.1000      0.2000      0.2000      0.2000      0.2000      0.1000      0.1000      0.1000    
  11    0.000      0.1000      0.1000      0.2000      0.2000      0.2000      0.2000      0.1000      0.1000       0.000    
  12   0.1000      0.1000      0.2000      0.2000      0.2000      0.2000      0.2000      0.1000      0.1000       0.000    
  13   0.2000      0.2000      0.2000      0.2000      0.2000      0.2000      0.2000      0.2000      0.2000       0.000    
  14    0.000      0.1000      0.1000      0.1000      0.1000      0.1000      0.1000      0.1000      0.2000       0.000    
  15    0.000       0.000      0.1000      0.1000      0.1000      0.1000       0.000       0.000       0.000       0.000    

 WEL -- WELL PACKAGE FOR NWT VERSION 1.1.2,  9/15/2016 INPUT READ FROM UNIT   16
 #Well Package input for test simulation 2
 No named parameters
 MAXIMUM OF     10 ACTIVE WELLS AT ONE TIME
 CELL-BY-CELL FLOWS WILL BE PRINTED WHEN ICBCFL NOT 0


     0 Well parameters

 GHB -- GENERAL-HEAD BOUNDARY PACKAGE, VERSION 7, 5/2/2005
         INPUT READ FROM UNIT   17
 No named parameters
 MAXIMUM OF      2 ACTIVE GHB CELLS AT ONE TIME
 CELL-BY-CELL FLOWS WILL BE PRINTED WHEN ICBCFL NOT 0


     0 GHB parameters

 SFR7 -- STREAMFLOW ROUTING PACKAGE, VERSION 1.0.5, 2012-04-05
         INPUT READ FROM UNIT  15
 #SFR2 Package input for Test Simulation 2
 No named parameters

 PROCESSING SFR2 OPTIONS
 
Stream loss will be calculated as a factor of the streambed hydraulic conductivity. Multiplication factor is equal to     0.1000000015E+00


 NUMBER OF STREAM REACHES IS   36

 NUMBER OF STREAM SEGMENTS IS    8

 NUMBER OF STREAM PARAMETERS IS    0

 NUMBER OF STREAM SEGMENTS DEFINED USING PARAMETERS IS              0

 MAXIMUM ERROR FOR STREAM LEAKAGE RATES IS  1.00E-06

 CONSTANT FOR MANNINGS EQUATION IS  1.4860E+00



 STREAM OUTPUT WILL BE WRITTEN TO FILE ON UNIT   81


   STREAM NETWORK DESCRIPTION: 

   LAYER    ROW    COL   SEGMENT   REACH     LENGTH
                          NUMBER   NUMBER    IN CELL        
   --------------------------------------------------
      1      1      1       1        1    4.5000E+03
      1      2      2       1        2    7.0000E+03
      1      3      3       1        3    6.0000E+03
      1      3      4       1        4    5.5500E+03
      1      4      5       2        1    6.5000E+03
      1      5      6       2        2    5.0000E+03
      1      6      6       2        3    5.0000E+03
      1      7      6       2        4    5.0000E+03
      1      8      6       2        5    5.0000E+03
      1      3      5       3        1    5.0000E+03
      1      3      6       3        2    5.0000E+03
      1      3      7       3        3    4.5000E+03
      1      4      8       3        4    6.0000E+03
      1      5      8       3        5    5.0000E+03
      1      6      8       3        6    2.0000E+03
      1      5     10       4        1    2.5000E+03
      1      5      9       4        2    5.0000E+03
      1      6      8       4        3    3.5000E+03
      1      6      8       5        1    4.0000E+03
      1      7      7       5        2    5.0000E+03
      1      8      7       5        3    3.5000E+03
      1      8      6       5        4    2.5000E+03
      1      9      6       6        1    5.0000E+03
      1     10      7       6        2    5.0000E+03
      1     11      7       6        3    5.0000E+03
      1     12      7       6        4    5.0000E+03
      1     13      7       6        5    2.0000E+03
      1     14      9       7        1    5.0000E+03
      1     13      8       7        2    5.5000E+03
      1     13      7       7        3    5.0000E+03
      1     13      6       8        1    5.0000E+03
      1     13      5       8        2    5.0000E+03
      1     13      4       8        3    5.0000E+03
      1     13      3       8        4    5.0000E+03
      1     13      2       8        5    5.0000E+03
      1     13      1       8        6    3.0000E+03




 UZF1 -- UNSATURATED FLOW PACKAGE, VERSION 1.4, 02/06/2012
         INPUT READ FROM UNIT 19
 #UZF Package input for test simulation 2
 No named parameters

 PROCESSING UZF OPTIONS
 
 INITIAL WATER CONTENT (THTI) WILL BE 
READ FOR THE FIRST SS OR TR STRESS PERIOD
 
 
 RESIDUAL WATER CONTENT (THTR) WILL BE 
READ AND USED FOR THE FIRST TRANSIENT STRESS 
PERIOD
 
  OUTPUT WILL BE WRITTEN TO NETRECH AND NETDIS FILES WITH UNIT NUMBERS        100       101, RESPECTIVELY
 
 A SQUARE ET FUNCTION WILL BE USED TO SIMULATE GW ET
 
 
INFILTRATION WILL BE REJECTED USING 
LAND SURFACE K
 
 
HYDRAULIC CONDUCTIVITY OF LAND SURFACE 
WILL BE READ
 



            AREAL EXTENT OF UZ FLOW
 READING ON UNIT   19 WITH FORMAT: (20I4)              

                1           2           3           4           5           6           7           8           9          10
 ............................................................................................................................
   1            1           1           0           0           0           0           0           0           0           0
   2            1           1           1           0           0           1           1           1           0           0
   3            0           1           1           1           1           1           1           1           0           0
   4            1           1           1           1           1           1           1           1           1           0
   5            1           1           1           1           1           1           1           1           1           1
   6            1           1           1           1           1           1           1           1           1           1
   7            1           1           1           1           1           1           1           1           1           0
   8            0           1           1           1           1           1           1           1           1           0
   9            0           1           1           1           1           1           1           1           1           0
  10            0           1           1           1           1           1           1           1           1           1
  11            0           1           1           1           1           1           1           1           1           0
  12            1           1           1           1           1           1           1           1           1           0
  13            1           1           1           1           1           1           1           1           1           0
  14            0           1           1           1           1           1           1           1           1           0
  15            0           0           1           1           1           1           0           0           0           0
 OPTION 1 -- RECHARGE IN UZF TO TOP LAYER ONLY 



            ROUTING OVERLAND RUNOFF
 READING ON UNIT   19 WITH FORMAT: (20I4)              

                1           2           3           4           5           6           7           8           9          10
 ............................................................................................................................
   1            1           1           0           0           0           0           0           0           0           0
   2            1           1           1           0           0           3           3           3           0           0
   3            0           1           1           1           3           3           3           3           0           0
   4            8           8           2           2           2           2           2           3           3           0
   5            8           8           8           8           2           2           2           3           4           4
   6            8           8           8           8           8           2           2           4           4           4
   7            8           8           8           8           8           2           5           5           5           0
   8            0           8           8           8           8           2           5           5           5           0
   9            0           8           8           8           8           6           6           6           6           0
  10            0           8           8           8           8           6           6           6           6           6
  11            0           8           8           8           8           8           6           6           7           0
  12            8           8           8           8           8           8           6           7           7           0
  13            8           8           8           8           8           8           7           7           7           0
  14            0           8           8           8           8           8           7           7           7           0
  15            0           0           8           8           8           8           0           0           0           0



               SATURATED VERTICAL K
 READING ON UNIT   19 WITH FORMAT: (10F4.0)            

            1           2           3           4           5           6           7           8           9          10
 ........................................................................................................................
   1   5.0000E-08  5.0000E-08   0.000       0.000       0.000       0.000       0.000       0.000       0.000       0.000    
   2   5.0000E-08  5.0000E-08  5.0000E-08   0.000       0.000      5.0000E-08  5.0000E-08  5.0000E-08   0.000       0.000    
   3    0.000      5.0000E-08  5.0000E-08  5.0000E-08  5.0000E-08  5.0000E-08  5.0000E-08  5.0000E-08   0.000       0.000    
   4   5.0000E-08  5.0000E-08  5.0000E-08  5.0000E-08  5.0000E-08  5.0000E-08  5.0000E-08  5.0000E-08  5.0000E-08   0.000    
   5   5.0000E-08  5.0000E-08  5.0000E-08  5.0000E-08  5.0000E-08  5.0000E-08  5.0000E-08  5.0000E-08  5.0000E-08  5.0000E-08
   6   5.0000E-08  5.0000E-08  5.0000E-08  5.0000E-08  5.0000E-08  5.0000E-08  5.0000E-08  5.0000E-08  5.0000E-08  5.0000E-08
   7   5.0000E-08  5.0000E-08  5.0000E-08  5.0000E-08  5.0000E-08  5.0000E-08  5.0000E-08  5.0000E-08  5.0000E-08   0.000    
   8    0.000      5.0000E-08  5.0000E-08  5.0000E-08  5.0000E-08  5.0000E-08  5.0000E-08  5.0000E-08  5.0000E-08   0.000    
   9    0.000      5.0000E-08  5.0000E-08  5.0000E-08  5.0000E-08  5.0000E-08  5.0000E-08  5.0000E-08  5.0000E-08   0.000    
  10    0.000      5.0000E-08  5.0000E-08  5.0000E-08  5.0000E-08  5.0000E-08  5.0000E-08  5.0000E-08  5.0000E-08  5.0000E-08
  11    0.000      5.0000E-08  5.0000E-08  5.0000E-08  5.0000E-08  5.0000E-08  5.0000E-08  5.0000E-08  5.0000E-08   0.000    
  12   5.0000E-08  5.0000E-08  5.0000E-08  5.0000E-08  5.0000E-08  5.0000E-08  5.0000E-08  5.0000E-08  5.0000E-08   0.000    
  13   5.0000E-08  5.0000E-08  5.0000E-08  5.0000E-08  5.0000E-08  5.0000E-08  5.0000E-08  5.0000E-08  5.0000E-08   0.000    
  14    0.000      5.0000E-08  5.0000E-08  5.0000E-08  5.0000E-08  5.0000E-08  5.0000E-08  5.0000E-08  5.0000E-08   0.000    
  15    0.000       0.000      5.0000E-08  5.0000E-08  5.0000E-08  5.0000E-08   0.000       0.000       0.000       0.000    



            LAND SURFACE VERTICAL K
 READING ON UNIT   19 WITH FORMAT: (10F4.0)            

            1           2           3           4           5           6           7           8           9          10
 ........................................................................................................................
   1   1.0000E-09  1.0000E-09   0.000       0.000       0.000       0.000       0.000       0.000       0.000       0.000    
   2   1.0000E-09  1.0000E-09  1.0000E-09   0.000       0.000      1.0000E-09  1.0000E-09  1.0000E-09   0.000       0.000    
   3    0.000      1.0000E-09  1.0000E-09  1.0000E-09  1.0000E-09  1.0000E-09  1.0000E-09  1.0000E-09   0.000       0.000    
   4   1.0000E-09  1.0000E-09  1.0000E-09  1.0000E-09  1.0000E-09  1.0000E-09  1.0000E-09  1.0000E-09  1.0000E-09   0.000    
   5   1.0000E-09  1.0000E-09  1.0000E-09  1.0000E-09  1.0000E-09  1.0000E-09  1.0000E-09  1.0000E-09  1.0000E-09  1.0000E-09
   6   1.0000E-09  1.0000E-09  1.0000E-09  1.0000E-09  1.0000E-09  1.0000E-09  1.0000E-09  1.0000E-09  1.0000E-09  1.0000E-09
   7   1.0000E-09  1.0000E-09  1.0000E-09  1.0000E-09  1.0000E-09  1.0000E-09  1.0000E-09  1.0000E-09  1.0000E-09   0.000    
   8    0.000      1.0000E-09  1.0000E-09  1.0000E-09  1.0000E-09  1.0000E-09  1.0000E-09  1.0000E-09  1.0000E-09   0.000    
   9    0.000      1.0000E-09  1.0000E-09  1.0000E-09  1.0000E-09  1.0000E-09  1.0000E-09  1.0000E-09  1.0000E-09   0.000    
  10    0.000      1.0000E-09  1.0000E-09  1.0000E-09  1.0000E-09  1.0000E-09  1.0000E-09  1.0000E-09  1.0000E-09  1.0000E-09
  11    0.000      1.0000E-09  1.0000E-09  1.0000E-09  1.0000E-09  1.0000E-09  1.0000E-09  1.0000E-09  1.0000E-09   0.000    
  12   1.0000E-09  1.0000E-09  1.0000E-09  1.0000E-09  1.0000E-09  1.0000E-09  1.0000E-09  1.0000E-09  1.0000E-09   0.000    
  13   1.0000E-09  1.0000E-09  1.0000E-09  1.0000E-09  1.0000E-09  1.0000E-09  1.0000E-09  1.0000E-09  1.0000E-09   0.000    
  14    0.000      1.0000E-09  1.0000E-09  1.0000E-09  1.0000E-09  1.0000E-09  1.0000E-09  1.0000E-09  1.0000E-09   0.000    
  15    0.000       0.000      1.0000E-09  1.0000E-09  1.0000E-09  1.0000E-09   0.000       0.000       0.000       0.000    

     BROOKS-COREY EPSILON =   3.50000    

  SATURATED WATER CONTENT =  0.300000    

   RESIDUAL WATER CONTENT =  5.000000E-02

    INITIAL WATER CONTENT =  6.000000E-02

UNSATURATED FLOW RESULTS WILL BE PRINTED TO SEPARATE FILES FOR SELECTED MODEL CELLS, AND TIME STEPS AS DEFINED BY OUTPUT CONTROL PACKAGE 

SELECTED MODEL CELLS ARE: 
 ROW NUMBER  COLUMN NUMBER  FORTRAN UNIT NUMBER  OUTPUT OPTION


       3             6                 65                 1
       6             3                 66                 2
      10             5                 67                 3
       0             0                 68                 4



   9 GAGING STATIONS WERE SPECIFIED.
     (Lakes are identified by a negative value of the Lake Number)
     RECORDS WILL BE WRITTEN TO SEPARATE OUTPUT FILES REPRESENTED BY FOLLOWING UNIT NUMBERS:

 Stream Gages:
  GAGE #   SEGMENT   REACH   UNIT   OUTTYPE
       1       1       4      83       1
       2       2       3      84       1
       3       3       5      85       1
       4       4       3      86       1
       5       5       4      87       4
       6       6       5      88       4
       7       7       3      89       4
       8       8       6      90       4
       9       3       1      91       5




1
                            STRESS PERIOD NO.    1, LENGTH =   2628000.    
                            -----------------------------------------------

                              NUMBER OF TIME STEPS =     1

                               MULTIPLIER FOR DELT =     1.000

                            INITIAL TIME STEP SIZE =   2628000.    

 WELL NO.  LAYER   ROW   COL   STRESS RATE         
 --------------------------------------------------
      1      1      6      4      -1.000    
      2      1      6      5      -1.000    
      3      1      7      4      -1.000    
      4      1      7      5      -1.000    
      5      1      8      4      -1.000    
      6      1      8      5      -1.000    
      7      1      9      4      -1.000    
      8      1      9      5      -1.000    
      9      1     10      4      -1.000    
     10      1     10      5      -1.000    

     10 WELLS

 BOUND. NO. LAYER   ROW   COL     STAGE      CONDUCTANCE         
 ----------------------------------------------------------------
      1      1     13      1       988.0          0.3800E-01
      2      1     14      9       1045.          0.3800E-01

      2 GHB CELLS



 CLASSIFICATION & COUNT OF STREAM SEGMENTS BASED ON SOURCE OF INFLOW:

                HEADWATER     DIVERSION     RECEIVES TRIBUTARY FLOW
                ---------     ---------     -----------------------
                     3              1               4



                    INPUT DATA FOR EACH STREAM SEGMENT
 ---------------------------------------------------------------------------------------------

 SEGMENT    SEG.     INFLOW   OVERLAND   STREAM    STREAM   ICALC  OUTFLOW  DIVERSION PRIORITY
    NO.    LENGTH     RATE     RUNOFF      ET       PPT.    METH.  TO SEG.  FROM SEG.    NO.

      1  2.305E+04 2.500E+01 0.000E+00 0.000E+00 0.000E+00    4        2        0        0
      2  2.650E+04 0.000E+00 0.000E+00 0.000E+00 0.000E+00    1        6        0        0
      3  2.750E+04 1.000E+01 0.000E+00 0.000E+00 0.000E+00    0        5        1        0
      4  1.100E+04 1.000E+01 0.000E+00 0.000E+00 0.000E+00    1        5        0        0
      5  1.500E+04 0.000E+00 0.000E+00 0.000E+00 0.000E+00    3        6        0        0
      6  2.200E+04 0.000E+00 0.000E+00 0.000E+00 0.000E+00    1        8        0        0
      7  1.550E+04 1.500E+02 0.000E+00 0.000E+00 0.000E+00    2        8        0        0
      8  2.800E+04 0.000E+00 0.000E+00 0.000E+00 0.000E+00    2        0        0        0


         STREAMBED PROPERTIES AND STREAM DIMENSIONS

 SEGMENT     BED HYD. COND.      BED THICKNESS     ELEV.-TOP OF BED     WIDTH OF STREAM     DEPTH OF STREAM    STREAM ROUGHNESS
    No.     UPPER     LOWER     UPPER     LOWER     UPPER     LOWER     UPPER     LOWER     UPPER     LOWER   CHANNEL      BANK

     1  3.000E-05 3.000E-05 3.000E+00 3.000E+00 1.095E+03 1.075E+03
     2  3.000E-05 3.000E-05 3.000E+00 3.000E+00 1.075E+03 1.050E+03 1.200E+01 1.200E+01                     3.000E-02
     3  3.000E-05 3.000E-05 2.000E+00 2.000E+00 1.075E+03 1.060E+03 1.000E+01 6.000E+00 2.000E+00 1.000E+00
     4  3.000E-05 3.000E-05 3.000E+00 3.000E+00 1.080E+03 1.060E+03 1.000E+01 1.000E+01                     3.000E-02
     5  3.000E-05 3.000E-05 3.000E+00 3.000E+00 1.060E+03 1.045E+03
     6  3.000E-05 3.000E-05 3.000E+00 3.000E+00 1.045E+03 1.025E+03 1.200E+01 1.200E+01                     3.000E-02
     7  6.000E-05 6.000E-05 3.000E+00 3.000E+00 1.040E+03 1.025E+03                                         2.500E-02 4.500E-02
     8  6.000E-05 6.000E-05 3.000E+00 3.000E+00 1.025E+03 9.900E+02                                         2.500E-02 4.500E-02

  EIGHT POINT CROSS-SECTION DATA FOR SEGMENTS WITH ICALC = 2
    X VALUES X VALUES START FROM LEFT SIDE LOOKING DOWNSTREAM

     SEGMENT NO.        X1        X2        X3        X4        X5        X6        X7        X8
            7      0.000E+00 1.000E+01 8.000E+01 1.000E+02 1.500E+02 1.700E+02 2.400E+02 2.500E+02
            8      0.000E+00 1.000E+01 8.000E+01 1.000E+02 1.500E+02 1.700E+02 2.400E+02 2.500E+02

    Z VALUES ARE RELATIVE TO STREAMBED ELEVATION

     SEGMENT NO.          Z1        Z2        Z3        Z4        Z5        Z6        Z7        Z8
            7      2.000E+01 1.300E+01 1.000E+01 2.000E+00 0.000E+00 1.000E+01 1.300E+01 2.000E+01
            8      2.500E+01 1.700E+01 1.300E+01 4.000E+00 0.000E+00 1.000E+01 1.600E+01 2.000E+01

 STREAMFLOW RELATION WITH DEPTH IS BASED ON EQUATION Q = CDPTH*(DEPTH)**FDPTH
 STREAMFLOW RELATION WITH WIDTH IS BASED ON EQUATION Q = AWDTH*(WIDTH)**BWDTH

 SEGMENT NO.      CDPTH     FDPTH    AWDTH     BWDTH

          5 3.000E-01 3.500E-01 3.800E+00 6.000E-01

 STREAMFLOW RELATION WITH DEPTH AND WIDTH IS BASED ON TABULATED VALUES

  SEGMENT NO.   STREAMFLOW       DEPTH       WIDTH

          1     5.0000E-01   2.5000E-01   3.0000E+00
          1     1.0000E+00   4.0000E-01   3.5000E+00
          1     2.0000E+00   5.5000E-01   4.2000E+00
          1     4.0000E+00   7.0000E-01   5.3000E+00
          1     7.0000E+00   8.0000E-01   7.0000E+00
          1     1.0000E+01   9.0000E-01   8.5000E+00
          1     2.0000E+01   1.1000E+00   1.2000E+01
          1     3.0000E+01   1.2500E+00   1.4000E+01
          1     5.0000E+01   1.4000E+00   1.7000E+01
          1     7.5000E+01   1.7000E+00   2.0000E+01
          1     1.0000E+02   1.8000E+00   2.2000E+01






            AREAL INFILTRATION RATE
 READING ON UNIT   19 WITH FORMAT: (10F4.0)            

            1           2           3           4           5           6           7           8           9          10
 ........................................................................................................................
   1   1.0000E-09  2.0000E-09   0.000       0.000       0.000       0.000       0.000       0.000       0.000       0.000    
   2   2.0000E-09  1.0000E-09  2.0000E-09   0.000       0.000      8.0000E-09  8.0000E-09  5.0000E-09   0.000       0.000    
   3    0.000      5.0000E-09  1.0000E-09  1.0000E-09  8.0000E-09  8.0000E-09  5.0000E-09  5.0000E-09   0.000       0.000    
   4   8.0000E-09  5.0000E-09  1.0000E-09  1.0000E-09  1.0000E-09  1.0000E-09  1.0000E-09  1.0000E-09  2.0000E-09   0.000    
   5   8.0000E-09  5.0000E-09  1.0000E-09  1.0000E-09  1.0000E-09  1.0000E-09  1.0000E-09  1.0000E-09  1.0000E-09  1.0000E-09
   6   8.0000E-09  5.0000E-09  5.0000E-09  2.0000E-09  2.0000E-09  1.0000E-09  1.0000E-09  1.0000E-09  1.0000E-09  5.0000E-09
   7   8.0000E-09  5.0000E-09  5.0000E-09  2.0000E-09  2.0000E-09  1.0000E-09  1.0000E-09  2.0000E-09  2.0000E-09   0.000    
   8    0.000      5.0000E-09  5.0000E-09  2.0000E-09  2.0000E-09  1.0000E-09  1.0000E-09  2.0000E-09  5.0000E-09   0.000    
   9    0.000      5.0000E-09  5.0000E-09  2.0000E-09  2.0000E-09  1.0000E-09  1.0000E-09  2.0000E-09  5.0000E-09   0.000    
  10    0.000      5.0000E-09  5.0000E-09  2.0000E-09  2.0000E-09  1.0000E-09  1.0000E-09  2.0000E-09  5.0000E-09  8.0000E-09
  11    0.000      1.0000E-09  1.0000E-09  1.0000E-09  1.0000E-09  1.0000E-09  1.0000E-09  2.0000E-09  5.0000E-09   0.000    
  12   1.0000E-09  1.0000E-09  1.0000E-09  1.0000E-09  1.0000E-09  1.0000E-09  1.0000E-09  1.0000E-09  2.0000E-09   0.000    
  13   1.0000E-09  1.0000E-09  2.0000E-09  2.0000E-09  2.0000E-09  2.0000E-09  2.0000E-09  1.0000E-09  1.0000E-09   0.000    
  14    0.000      2.0000E-09  5.0000E-09  5.0000E-09  5.0000E-09  5.0000E-09  5.0000E-09  2.0000E-09  1.0000E-09   0.000    
  15    0.000       0.000      8.0000E-09  8.0000E-09  8.0000E-09  8.0000E-09   0.000       0.000       0.000       0.000    

                  ET RATE =  1.000000E-08

      ET EXTINCTION DEPTH =   5.00000    



           EXTINCTION WATER CONTENT
 READING ON UNIT   19 WITH FORMAT: (10F4.0)            

            1           2           3           4           5           6           7           8           9          10
 ........................................................................................................................
   1   0.1000      0.1000       0.000       0.000       0.000       0.000       0.000       0.000       0.000       0.000    
   2   0.2000      0.1000      0.1000       0.000       0.000      0.2000      0.2000      0.2000       0.000       0.000    
   3    0.000      0.2000      0.1000      0.1000      0.2000      0.2000      0.2000      0.2000       0.000       0.000    
   4   0.2000      0.2000      0.2000      0.1000      0.1000      0.1000      0.2000      0.2000      0.2000      0.1000    
   5   0.2000      0.2000      0.2000      0.1000      0.1000      0.1000      0.1000      0.1000      0.1000      0.1000    
   6   0.2000      0.2000      0.2000      0.1000      0.1000      0.1000      0.1000      0.1000      0.2000      0.2000    
   7   0.2000      0.2000      0.2000      0.1000      0.1000      0.1000      0.1000      0.1000      0.2000       0.000    
   8    0.000      0.2000      0.2000      0.1000      0.1000      0.1000      0.1000      0.2000      0.2000       0.000    
   9    0.000      0.2000      0.2000      0.1000      0.1000      0.1000      0.1000      0.2000      0.2000       0.000    
  10    0.000      0.2000      0.2000      0.1000      0.1000      0.1000      0.1000      0.2000      0.2000      0.2000    
  11    0.000      0.2000      0.2000      0.1000      0.1000      0.1000      0.1000      0.2000      0.2000       0.000    
  12   0.2000      0.2000      0.1000      0.1000      0.1000      0.1000      0.1000      0.2000      0.2000       0.000    
  13   0.1000      0.1000      0.1000      0.1000      0.1000      0.1000      0.1000      0.1000      0.1000       0.000    
  14    0.000      0.2000      0.2000      0.2000      0.2000      0.2000      0.2000      0.2000      0.1000       0.000    
  15    0.000       0.000      0.2000      0.2000      0.2000      0.2000       0.000       0.000       0.000       0.000    
 
 SOLVING FOR HEAD 
                                                   Max.-Head-Change                         Max.-Flux-Residual
  Residual-Control   Outer-Iter.   Inner-Iter.     Column Row Layer    Maximum-Head-Change  Column Row Layer    Maximum-Flux-Residual          L2-NORM 
          0                 1           6             1    1     1      -0.4751841638E+02       3    3    1        -0.3451069611E+01      0.1037788155E+02
          0                 2           6             6    3     1      -0.4386330958E+02       2   13    1        -0.3797578611E+02      0.5311928283E+02
          0                 3           7             4   13     1      -0.7714374719E+01       4   13    1        -0.6761399174E+01      0.7322862016E+01
          0                 4           7             3   13     1      -0.9889374869E+01       1   13    1        -0.2139717914E+02      0.2832631227E+02
          0                 5           7             2   13     1      -0.4213166486E+01       2   13    1        -0.3585909093E+01      0.3728337686E+01
          0                 6           8             2   13     1      -0.3611119097E+02       2   13    1        -0.1488834106E+01      0.1591336145E+01
          0                 7           7             6    2     1       0.8322846289E+01       2   13    1        -0.5236026374E+00      0.9863676470E+00
          0                 8           8             1    1     1      -0.3209578942E+01       1    1    1        -0.1173110766E+00      0.2606469030E+00
          0                 9           6             1    1     1      -0.9648865321E+00       1    1    1        -0.2004511895E-01      0.3147752793E-01
          0                10           6             1    1     1      -0.8052147776E-01       1    1    1        -0.1276178384E-02      0.2251732911E-02
                                                   Max.-Head-Change                         Max.-Flux-Residual
  Residual-Control   Outer-Iter.   Inner-Iter.     Column Row Layer    Maximum-Head-Change  Column Row Layer    Maximum-Flux-Residual          L2-NORM 
          0                11           1             1    1     1       0.3857451258E-02       4   13    1        -0.8229133778E-04      0.1365134978E-03
          0                12           1             1    1     1      -0.1971788967E-03       4   13    1         0.4199152954E-05      0.7075384288E-05
          0                13           2             4    6     1       0.1406572197E-03       6    7    1         0.4691150934E-06      0.1298958770E-05
          0                14           1             2   13     1       0.2914653625E-05       4   13    1         0.1338568381E-05      0.1973189293E-05

    ------------------------------------------------
       NWT REQUIRED           14 OUTER ITERATIONS 
       AND A TOTAL OF         73 INNER ITERATIONS.
    ------------------------------------------------

 OUTPUT CONTROL FOR STRESS PERIOD    1   TIME STEP    1
    PRINT BUDGET
    SAVE BUDGET

            WELLS   PERIOD    1   STEP   1
 WELL      1   LAYER   1   ROW     6   COL     4   RATE    -1.00000    
 WELL      2   LAYER   1   ROW     6   COL     5   RATE    -1.00000    
 WELL      3   LAYER   1   ROW     7   COL     4   RATE    -1.00000    
 WELL      4   LAYER   1   ROW     7   COL     5   RATE    -1.00000    
 WELL      5   LAYER   1   ROW     8   COL     4   RATE    -1.00000    
 WELL      6   LAYER   1   ROW     8   COL     5   RATE    -1.00000    
 WELL      7   LAYER   1   ROW     9   COL     4   RATE    -1.00000    
 WELL      8   LAYER   1   ROW     9   COL     5   RATE    -1.00000    
 WELL      9   LAYER   1   ROW    10   COL     4   RATE    -1.00000    
 WELL     10   LAYER   1   ROW    10   COL     5   RATE    -1.00000    

  HEAD DEP BOUNDS   PERIOD    1   STEP   1
 BOUNDARY      1   LAYER   1   ROW    13   COL     1   RATE    0.757776    
 BOUNDARY      2   LAYER   1   ROW    14   COL     9   RATE     2.36779    



 STREAM LISTING     PERIOD      1   STEP        1

 LAYER ROW COL. STREAM  RCH.  FLOW INTO     FLOW TO   FLOW OUT OF   OVRLND.     DIRECT     STREAM       STREAM     STREAM     STREAM   STREAMBED  STREAMBED
                SEG.NO.  NO.  STRM. RCH.    AQUIFER    STRM. RCH.    RUNOFF     PRECIP       ET          HEAD       DEPTH      WIDTH   CONDCTNC.   GRADIENT

   1    1    1     1     1    2.5000E+01  2.4523E-09   2.5034E+01  3.416E-02  0.000E+00  0.000E+00  1.09423E+03  1.179E+00  1.304E+01  5.869E-10  1.393E+00
   1    2    2     1     2    2.5034E+01  3.8129E-09   2.5087E+01  5.315E-02  0.000E+00  0.000E+00  1.08924E+03  1.178E+00  1.304E+01  9.126E-10  1.393E+00
   1    3    3     1     3    2.5087E+01  3.2729E-09   2.5133E+01  4.555E-02  0.000E+00  0.000E+00  1.08360E+03  1.179E+00  1.305E+01  7.831E-10  1.393E+00
   1    3    4     1     4    2.5133E+01  3.0306E-09   2.5175E+01  4.214E-02  0.000E+00  0.000E+00  1.07859E+03  1.180E+00  1.306E+01  7.250E-10  1.393E+00
   1    4    5     2     1    1.5175E+01  3.0339E-01   1.4872E+01  0.000E+00  0.000E+00  0.000E+00  1.07282E+03  8.896E-01  1.200E+01  7.800E-02  1.297E+00
   1    5    6     2     2    1.4872E+01  2.3280E-01   1.4639E+01  0.000E+00  0.000E+00  0.000E+00  1.06739E+03  8.801E-01  1.200E+01  6.000E-02  1.293E+00
   1    6    6     2     3    1.4639E+01  2.3230E-01   1.4407E+01  0.000E+00  0.000E+00  0.000E+00  1.06266E+03  8.717E-01  1.200E+01  6.000E-02  1.291E+00
   1    7    6     2     4    1.4407E+01  2.3180E-01   1.4175E+01  0.000E+00  0.000E+00  0.000E+00  1.05794E+03  8.633E-01  1.200E+01  6.000E-02  1.288E+00
   1    8    6     2     5    1.4175E+01  2.3129E-01   1.3943E+01  0.000E+00  0.000E+00  0.000E+00  1.05321E+03  8.549E-01  1.200E+01  6.000E-02  1.285E+00
   1    3    5     3     1    1.0000E+01  2.8252E-01   9.9038E+00  1.864E-01  0.000E+00  0.000E+00  1.07555E+03  1.909E+00  9.636E+00  7.227E-02  1.955E+00
   1    3    6     3     2    9.9038E+00  2.4905E-01   9.8412E+00  1.864E-01  0.000E+00  0.000E+00  1.07264E+03  1.727E+00  8.909E+00  6.682E-02  1.864E+00
   1    3    7     3     3    9.8412E+00  1.9718E-01   9.8117E+00  1.677E-01  0.000E+00  0.000E+00  1.06987E+03  1.555E+00  8.218E+00  5.547E-02  1.777E+00
   1    4    8     3     4    9.8117E+00  2.2567E-01   9.8097E+00  2.236E-01  0.000E+00  0.000E+00  1.06682E+03  1.364E+00  7.455E+00  6.709E-02  1.682E+00
   1    5    8     3     5    9.8097E+00  1.5790E-01   9.8381E+00  1.864E-01  0.000E+00  0.000E+00  1.06362E+03  1.164E+00  6.655E+00  4.991E-02  1.582E+00
   1    6    8     3     6    9.8381E+00  5.5980E-02   9.8567E+00  7.455E-02  0.000E+00  0.000E+00  1.06158E+03  1.036E+00  6.145E+00  1.844E-02  1.518E+00
   1    5   10     4     1    1.0000E+01  9.0930E-02   9.9318E+00  2.273E-02  0.000E+00  0.000E+00  1.07836E+03  6.372E-01  1.000E+01  2.500E-02  1.212E+00
   1    5    9     4     2    9.9318E+00  1.8166E-01   9.7956E+00  4.545E-02  0.000E+00  0.000E+00  1.07154E+03  6.333E-01  1.000E+01  5.000E-02  1.211E+00
   1    6    8     4     3    9.7956E+00  1.2701E-01   9.7004E+00  3.182E-02  0.000E+00  0.000E+00  1.06381E+03  6.288E-01  1.000E+01  3.500E-02  1.210E+00
   1    6    8     5     1    1.9557E+01  3.4654E-09   1.9604E+01  4.667E-02  0.000E+00  0.000E+00  1.05885E+03  8.470E-01  2.252E+01  9.008E-10  1.282E+00
   1    7    7     5     2    1.9604E+01  4.3331E-09   1.9662E+01  5.833E-02  0.000E+00  0.000E+00  1.05435E+03  8.472E-01  2.253E+01  1.126E-09  1.282E+00
   1    8    7     5     3    1.9662E+01  3.0452E-09   1.9703E+01  4.083E-02  0.000E+00  0.000E+00  1.05010E+03  8.489E-01  2.261E+01  7.912E-10  1.283E+00
   1    8    6     5     4    1.9703E+01  2.1810E-09   1.9732E+01  2.917E-02  0.000E+00  0.000E+00  1.04710E+03  8.501E-01  2.266E+01  5.665E-10  1.283E+00
   1    9    6     6     1    3.3676E+01  2.6747E-01   3.3510E+01  1.023E-01  0.000E+00  0.000E+00  1.04419E+03  1.458E+00  1.200E+01  6.000E-02  1.486E+00
   1   10    7     6     2    3.3510E+01  2.6721E-01   3.3345E+01  1.023E-01  0.000E+00  0.000E+00  1.03964E+03  1.454E+00  1.200E+01  6.000E-02  1.485E+00
   1   11    7     6     3    3.3345E+01  2.6696E-01   3.3181E+01  1.023E-01  0.000E+00  0.000E+00  1.03509E+03  1.449E+00  1.200E+01  6.000E-02  1.483E+00
   1   12    7     6     4    3.3181E+01  2.6670E-01   3.3016E+01  1.023E-01  0.000E+00  0.000E+00  1.03054E+03  1.445E+00  1.200E+01  6.000E-02  1.482E+00
   1   13    7     6     5    3.3016E+01  1.0661E-01   3.2951E+01  4.091E-02  0.000E+00  0.000E+00  1.02735E+03  1.442E+00  1.200E+01  2.400E-02  1.481E+00
   1   14    9     7     1    1.5000E+02  2.9541E-11   1.5009E+02  8.871E-02  0.000E+00  0.000E+00  1.03986E+03  2.284E+00  5.528E+01  5.591E-12  1.761E+00
   1   13    8     7     2    1.5009E+02  3.2493E-08   1.5019E+02  9.758E-02  0.000E+00  0.000E+00  1.03478E+03  2.283E+00  5.528E+01  6.150E-09  1.761E+00
   1   13    7     7     3    1.5019E+02  2.9549E-14   1.5028E+02  8.871E-02  0.000E+00  0.000E+00  1.02970E+03  2.285E+00  5.528E+01  5.592E-15  1.762E+00
   1   13    6     8     1    1.8323E+02  2.6994E-13   1.8383E+02  6.027E-01  0.000E+00  0.000E+00  1.02490E+03  3.030E+00  4.393E+01  4.477E-14  2.010E+00
   1   13    5     8     2    1.8383E+02  2.7157E-32   1.8443E+02  6.027E-01  0.000E+00  0.000E+00  1.01867E+03  3.042E+00  4.411E+01  4.495E-33  2.014E+00
   1   13    4     8     3    1.8443E+02  2.7094E-16   1.8503E+02  6.027E-01  0.000E+00  0.000E+00  1.01241E+03  3.037E+00  4.404E+01  4.488E-17  2.012E+00
   1   13    3     8     4    1.8503E+02  2.7257E-31   1.8564E+02  6.027E-01  0.000E+00  0.000E+00  1.00617E+03  3.049E+00  4.422E+01  4.506E-32  2.016E+00
   1   13    2     8     5    1.8564E+02  2.7194E-18   1.8624E+02  6.027E-01  0.000E+00  0.000E+00  9.99920E+02  3.045E+00  4.415E+01  4.499E-19  2.015E+00
   1   13    1     8     6    1.8624E+02  1.6368E-15   1.8660E+02  3.616E-01  0.000E+00  0.000E+00  9.94926E+02  3.051E+00  4.424E+01  2.705E-16  2.017E+00



 UBDSV3 SAVING "     NETRECHARGE" ON UNIT 100 AT TIME STEP  1, STRESS PERIOD   1
 UBDSV3 SAVING "    NETDISCHARGE" ON UNIT 101 AT TIME STEP  1, STRESS PERIOD   1
 UBDSV3 SAVING "           GW ET" ON UNIT  61 AT TIME STEP  1, STRESS PERIOD   1
 UBDSV3 SAVING "    UZF RECHARGE" ON UNIT  61 AT TIME STEP  1, STRESS PERIOD   1
 UBDSV3 SAVING " SURFACE LEAKAGE" ON UNIT  61 AT TIME STEP  1, STRESS PERIOD   1
 UBDSV3 SAVING "       HORT+DUNN" ON UNIT  61 AT TIME STEP  1, STRESS PERIOD   1
 UBDSV3 SAVING "  STORAGE CHANGE" ON UNIT  61 AT TIME STEP  1, STRESS PERIOD   1


UNSATURATED ZONE PACKAGE VOLUMETRIC BUDGET FOR  TIME STEP     1 STRESS PERIOD    1
  ------------------------------------------------------------------------------



     CUMULATIVE VOLUMES      L**3       RATES FOR THIS TIME STEP      L**3/T
     ------------------                 ------------------------

           IN:                                      IN:
           ---                                      ---
        INFILTRATION =     7621200.0000          INFILTRATION =           2.9000

          OUT:                                     OUT:
          ----                                     ----
              UZF ET =       0.0000E+00                UZF ET =       0.0000E+00
        UZF RECHARGE =     7621200.0000          UZF RECHARGE =           2.9000

            IN - OUT =       0.0000E+00              IN - OUT =       0.0000E+00

          STORAGE:                                 STORAGE:
          --------                                 --------
      STORAGE CHANGE =       0.0000E+00        STORAGE CHANGE =       0.0000E+00

 PERCENT DISCREPANCY IS DIFFERENCE BETWEEN IN-OUT MINUS CHANGE IN STORAGE
 DIVIDED BY THE AVERAGE OF IN AND OUT TIMES 100

 PERCENT DISCREPANCY =           0.00     PERCENT DISCREPANCY =           0.00






1
  VOLUMETRIC BUDGET FOR ENTIRE MODEL AT END OF TIME STEP    1, STRESS PERIOD   1
  ------------------------------------------------------------------------------

     CUMULATIVE VOLUMES      L**3       RATES FOR THIS TIME STEP      L**3/T
     ------------------                 ------------------------

           IN:                                      IN:
           ---                                      ---
             STORAGE =           0.0000               STORAGE =           0.0000
       CONSTANT HEAD =           0.0000         CONSTANT HEAD =           0.0000
               WELLS =           0.0000                 WELLS =           0.0000
     HEAD DEP BOUNDS =     8213990.5000       HEAD DEP BOUNDS =           3.1256
      STREAM LEAKAGE =    10444820.0000        STREAM LEAKAGE =           3.9744
        UZF RECHARGE =     7621205.5000          UZF RECHARGE =           2.9000
               GW ET =           0.0000                 GW ET =           0.0000
     SURFACE LEAKAGE =           0.0000       SURFACE LEAKAGE =           0.0000

            TOTAL IN =    26280016.0000              TOTAL IN =          10.0000

          OUT:                                     OUT:
          ----                                     ----
             STORAGE =           0.0000               STORAGE =           0.0000
       CONSTANT HEAD =           0.0000         CONSTANT HEAD =           0.0000
               WELLS =    26280000.0000                 WELLS =          10.0000
     HEAD DEP BOUNDS =           0.0000       HEAD DEP BOUNDS =           0.0000
      STREAM LEAKAGE =           0.0000        STREAM LEAKAGE =           0.0000
        UZF RECHARGE =           0.0000          UZF RECHARGE =           0.0000
               GW ET =           0.0000                 GW ET =           0.0000
     SURFACE LEAKAGE =           0.0000       SURFACE LEAKAGE =           0.0000

           TOTAL OUT =    26280000.0000             TOTAL OUT =          10.0000

            IN - OUT =          16.0000              IN - OUT =       5.7220E-06

 PERCENT DISCREPANCY =           0.00     PERCENT DISCREPANCY =           0.00






         TIME SUMMARY AT END OF TIME STEP    1 IN STRESS PERIOD    1
                    SECONDS     MINUTES      HOURS       DAYS        YEARS
                    -----------------------------------------------------------
   TIME STEP LENGTH 2.62800E+06  43800.      730.00      30.417     8.32763E-02
 STRESS PERIOD TIME 2.62800E+06  43800.      730.00      30.417     8.32763E-02
         TOTAL TIME 2.62800E+06  43800.      730.00      30.417     8.32763E-02
1
1
                            STRESS PERIOD NO.    2, LENGTH =   2628000.    
                            -----------------------------------------------

                              NUMBER OF TIME STEPS =    15

                               MULTIPLIER FOR DELT =     1.100

                            INITIAL TIME STEP SIZE =   82713.07    

 WELL NO.  LAYER   ROW   COL   STRESS RATE         
 --------------------------------------------------
      1      1      6      4      -4.000    
      2      1      6      5      -4.000    
      3      1      7      4      -4.000    
      4      1      7      5      -4.000    
      5      1      8      4      -4.000    
      6      1      8      5      -4.000    
      7      1      9      4      -4.000    
      8      1      9      5      -4.000    
      9      1     10      4      -4.000    
     10      1     10      5      -4.000    

     10 WELLS

 REUSING NON-PARAMETER GHB CELLS FROM LAST STRESS PERIOD

      2 GHB CELLS

 REUSING STREAM SEGMENT DATA FROM LAST STRESS PERIOD



            AREAL INFILTRATION RATE
 READING ON UNIT   19 WITH FORMAT: (10F4.0)            

            1           2           3           4           5           6           7           8           9          10
 ........................................................................................................................
   1   8.0000E-09  1.6000E-08   0.000       0.000       0.000       0.000       0.000       0.000       0.000       0.000    
   2   1.6000E-08  8.0000E-09  1.6000E-08   0.000       0.000      6.4000E-08  6.4000E-08  4.0000E-08   0.000       0.000    
   3    0.000      4.0000E-08  8.0000E-09  8.0000E-09  6.4000E-08  6.4000E-08  4.0000E-08  4.0000E-08   0.000       0.000    
   4   6.4000E-08  4.0000E-08  8.0000E-09  8.0000E-09  8.0000E-09  8.0000E-09  8.0000E-09  8.0000E-09  1.6000E-08   0.000    
   5   6.4000E-08  4.0000E-08  8.0000E-09  8.0000E-09  8.0000E-09  8.0000E-09  8.0000E-09  8.0000E-09  8.0000E-09  8.0000E-09
   6   6.4000E-08  4.0000E-08  4.0000E-08  1.6000E-08  1.6000E-08  8.0000E-09  8.0000E-09  8.0000E-09  8.0000E-09  4.0000E-08
   7   6.4000E-08  4.0000E-08  4.0000E-08  1.6000E-08  1.6000E-08  8.0000E-09  8.0000E-09  1.6000E-08  1.6000E-08   0.000    
   8    0.000      4.0000E-08  4.0000E-08  1.6000E-08  1.6000E-08  8.0000E-09  8.0000E-09  1.6000E-08  4.0000E-08   0.000    
   9    0.000      4.0000E-08  4.0000E-08  1.6000E-08  1.6000E-08  8.0000E-09  8.0000E-09  1.6000E-08  4.0000E-08   0.000    
  10    0.000      4.0000E-08  4.0000E-08  1.6000E-08  1.6000E-08  8.0000E-09  8.0000E-09  1.6000E-08  4.0000E-08  6.4000E-08
  11    0.000      8.0000E-09  8.0000E-09  8.0000E-09  8.0000E-09  8.0000E-09  8.0000E-09  1.6000E-08  4.0000E-08   0.000    
  12   8.0000E-09  8.0000E-09  8.0000E-09  8.0000E-09  8.0000E-09  8.0000E-09  8.0000E-09  8.0000E-09  1.6000E-08   0.000    
  13   8.0000E-09  8.0000E-09  1.6000E-08  1.6000E-08  1.6000E-08  1.6000E-08  1.6000E-08  8.0000E-09  8.0000E-09   0.000    
  14    0.000      1.6000E-08  4.0000E-08  4.0000E-08  4.0000E-08  4.0000E-08  4.0000E-08  1.6000E-08  8.0000E-09   0.000    
  15    0.000       0.000      6.4000E-08  6.4000E-08  6.4000E-08  6.4000E-08   0.000       0.000       0.000       0.000    

                  ET RATE =  5.000000E-08

 USING ET EXTINCTION DEPTH FROM PREVIOUS STRESS PERIOD. CURRENT PERIOD IS:       2

 USING EXTINCTION WATER CONTENT FROM PREVIOUS STRESS PERIOD. CURRENT PERIOD IS:       2
 
 SOLVING FOR HEAD 
                                                   Max.-Head-Change                         Max.-Flux-Residual
  Residual-Control   Outer-Iter.   Inner-Iter.     Column Row Layer    Maximum-Head-Change  Column Row Layer    Maximum-Flux-Residual          L2-NORM 
          0                 1           2             4    8     1      -0.5480591186E-01       5   10    1        -0.3024986975E+01      0.9569049433E+01
          0                 2           2             4    8     1       0.5430464048E-02       5   10    1         0.3024817333E+00      0.9568468588E+00
          0                 3           2             4    8     1      -0.4843029445E-03       5   10    1        -0.2722336885E-01      0.8611625456E-01
          0                 4           1             4    8     1       0.3844066392E-04       5   10    1         0.2180592338E-02      0.6897913418E-02

    ------------------------------------------------
       NWT REQUIRED            4 OUTER ITERATIONS 
       AND A TOTAL OF          7 INNER ITERATIONS.
    ------------------------------------------------

 OUTPUT CONTROL WAS SPECIFIED FOR A NONEXISTENT TIME STEP
 OR OUTPUT CONTROL DATA ARE NOT ENTERED IN ASCENDING ORDER
 OUTPUT CONTROL STRESS PERIOD    1   TIME STEP    5
 MODEL STRESS PERIOD    2   TIME STEP    1
 APPLYING THE SPECIFIED OUTPUT CONTROL TO THE CURRENT TIME STEP

 OUTPUT CONTROL FOR STRESS PERIOD    2   TIME STEP    1
    PRINT BUDGET
    SAVE BUDGET

            WELLS   PERIOD    2   STEP   1
 WELL      1   LAYER   1   ROW     6   COL     4   RATE    -4.00000    
 WELL      2   LAYER   1   ROW     6   COL     5   RATE    -4.00000    
 WELL      3   LAYER   1   ROW     7   COL     4   RATE    -4.00000    
 WELL      4   LAYER   1   ROW     7   COL     5   RATE    -4.00000    
 WELL      5   LAYER   1   ROW     8   COL     4   RATE    -4.00000    
 WELL      6   LAYER   1   ROW     8   COL     5   RATE    -4.00000    
 WELL      7   LAYER   1   ROW     9   COL     4   RATE    -4.00000    
 WELL      8   LAYER   1   ROW     9   COL     5   RATE    -4.00000    
 WELL      9   LAYER   1   ROW    10   COL     4   RATE    -4.00000    
 WELL     10   LAYER   1   ROW    10   COL     5   RATE    -4.00000    

  HEAD DEP BOUNDS   PERIOD    2   STEP   1
 BOUNDARY      1   LAYER   1   ROW    13   COL     1   RATE    0.757792    
 BOUNDARY      2   LAYER   1   ROW    14   COL     9   RATE     2.36781    



 STREAM LISTING     PERIOD      2   STEP        1

 LAYER ROW COL. STREAM  RCH.  FLOW INTO     FLOW TO   FLOW OUT OF   OVRLND.     DIRECT     STREAM       STREAM     STREAM     STREAM   STREAMBED  STREAMBED
                SEG.NO.  NO.  STRM. RCH.    AQUIFER    STRM. RCH.    RUNOFF     PRECIP       ET          HEAD       DEPTH      WIDTH   CONDCTNC.   GRADIENT

   1    1    1     1     1    2.5000E+01  2.4641E-09   2.5547E+01  5.466E-01  0.000E+00  0.000E+00  1.09423E+03  1.182E+00  1.309E+01  5.891E-10  1.394E+00
   1    2    2     1     2    2.5547E+01  3.8776E-09   2.6397E+01  8.503E-01  0.000E+00  0.000E+00  1.08925E+03  1.192E+00  1.322E+01  9.251E-10  1.397E+00
   1    3    3     1     3    2.6397E+01  3.3727E-09   2.7126E+01  7.289E-01  0.000E+00  0.000E+00  1.08362E+03  1.203E+00  1.337E+01  8.024E-10  1.401E+00
   1    3    4     1     4    2.7126E+01  3.1588E-10   2.7800E+01  6.742E-01  0.000E+00  0.000E+00  1.07862E+03  1.213E+00  1.351E+01  7.497E-11  1.404E+00
   1    4    5     2     1    1.7800E+01  3.1109E-01   1.8004E+01  5.151E-01  0.000E+00  0.000E+00  1.07292E+03  9.883E-01  1.200E+01  7.800E-02  1.329E+00
   1    5    6     2     2    1.8004E+01  2.3966E-01   1.8161E+01  3.962E-01  0.000E+00  0.000E+00  1.06750E+03  9.943E-01  1.200E+01  6.000E-02  1.331E+00
   1    6    6     2     3    1.8161E+01  2.3996E-01   1.8317E+01  3.962E-01  0.000E+00  0.000E+00  1.06279E+03  9.994E-01  1.200E+01  6.000E-02  1.333E+00
   1    7    6     2     4    1.8317E+01  2.4027E-01   1.8473E+01  3.962E-01  0.000E+00  0.000E+00  1.05808E+03  1.005E+00  1.200E+01  6.000E-02  1.335E+00
   1    8    6     2     5    1.8473E+01  2.4058E-01   1.8628E+01  3.962E-01  0.000E+00  0.000E+00  1.05337E+03  1.010E+00  1.200E+01  6.000E-02  1.337E+00
   1    3    5     3     1    1.0000E+01  2.8252E-01   1.1527E+01  1.809E+00  0.000E+00  0.000E+00  1.07555E+03  1.909E+00  9.636E+00  7.227E-02  1.955E+00
   1    3    6     3     2    1.1527E+01  2.4905E-01   1.3087E+01  1.809E+00  0.000E+00  0.000E+00  1.07264E+03  1.727E+00  8.909E+00  6.682E-02  1.864E+00
   1    3    7     3     3    1.3087E+01  1.9718E-01   1.4518E+01  1.628E+00  0.000E+00  0.000E+00  1.06987E+03  1.555E+00  8.218E+00  5.547E-02  1.777E+00
   1    4    8     3     4    1.4518E+01  2.2567E-01   1.6463E+01  2.171E+00  0.000E+00  0.000E+00  1.06682E+03  1.364E+00  7.455E+00  6.709E-02  1.682E+00
   1    5    8     3     5    1.6463E+01  1.5790E-01   1.8114E+01  1.809E+00  0.000E+00  0.000E+00  1.06362E+03  1.164E+00  6.655E+00  4.991E-02  1.582E+00
   1    6    8     3     6    1.8114E+01  5.5980E-02   1.8782E+01  7.236E-01  0.000E+00  0.000E+00  1.06158E+03  1.036E+00  6.145E+00  1.844E-02  1.518E+00
   1    5   10     4     1    1.0000E+01  9.1101E-02   1.0290E+01  3.807E-01  0.000E+00  0.000E+00  1.07837E+03  6.440E-01  1.000E+01  2.500E-02  1.215E+00
   1    5    9     4     2    1.0290E+01  1.8302E-01   1.0868E+01  7.614E-01  0.000E+00  0.000E+00  1.07157E+03  6.604E-01  1.000E+01  5.000E-02  1.220E+00
   1    6    8     4     3    1.0868E+01  1.2875E-01   1.1272E+01  5.330E-01  0.000E+00  0.000E+00  1.06386E+03  6.787E-01  1.000E+01  3.500E-02  1.226E+00
   1    6    8     5     1    3.0054E+01  4.6791E-09   3.0707E+01  6.533E-01  0.000E+00  0.000E+00  1.05899E+03  9.882E-01  2.933E+01  1.173E-09  1.329E+00
   1    7    7     5     2    3.0707E+01  5.9382E-09   3.1524E+01  8.167E-01  0.000E+00  0.000E+00  1.05450E+03  9.959E-01  2.972E+01  1.486E-09  1.332E+00
   1    8    7     5     3    3.1524E+01  4.2287E-09   3.2095E+01  5.717E-01  0.000E+00  0.000E+00  1.05025E+03  1.005E+00  3.017E+01  1.056E-09  1.335E+00
   1    8    6     5     4    3.2095E+01  3.0565E-09   3.2504E+01  4.083E-01  0.000E+00  0.000E+00  1.04726E+03  1.011E+00  3.048E+01  7.621E-10  1.337E+00
   1    9    6     6     1    5.1132E+01  2.9321E-01   5.2135E+01  1.295E+00  0.000E+00  0.000E+00  1.04461E+03  1.887E+00  1.200E+01  6.000E-02  1.629E+00
   1   10    7     6     2    5.2135E+01  2.9452E-01   5.3135E+01  1.295E+00  0.000E+00  0.000E+00  1.04009E+03  1.909E+00  1.200E+01  6.000E-02  1.636E+00
   1   11    7     6     3    5.3135E+01  2.9582E-01   5.4135E+01  1.295E+00  0.000E+00  0.000E+00  1.03557E+03  1.930E+00  1.200E+01  6.000E-02  1.643E+00
   1   12    7     6     4    5.4135E+01  2.9711E-01   5.5133E+01  1.295E+00  0.000E+00  0.000E+00  1.03104E+03  1.952E+00  1.200E+01  6.000E-02  1.651E+00
   1   13    7     6     5    5.5133E+01  1.1920E-01   5.5532E+01  5.182E-01  0.000E+00  0.000E+00  1.02788E+03  1.967E+00  1.200E+01  2.400E-02  1.656E+00
   1   14    9     7     1    1.5000E+02  2.9566E-12   1.5122E+02  1.218E+00  0.000E+00  0.000E+00  1.03987E+03  2.287E+00  5.529E+01  5.592E-13  1.762E+00
   1   13    8     7     2    1.5122E+02  3.2576E-14   1.5256E+02  1.340E+00  0.000E+00  0.000E+00  1.03479E+03  2.293E+00  5.532E+01  6.155E-15  1.764E+00
   1   13    7     7     3    1.5256E+02  2.9676E-15   1.5378E+02  1.218E+00  0.000E+00  0.000E+00  1.02972E+03  2.300E+00  5.535E+01  5.599E-16  1.767E+00
   1   13    6     8     1    2.0931E+02  2.9342E-18   2.1582E+02  6.509E+00  0.000E+00  0.000E+00  1.02508E+03  3.202E+00  4.643E+01  4.731E-19  2.067E+00
   1   13    5     8     2    2.1582E+02  2.9851E-09   2.2233E+02  6.509E+00  0.000E+00  0.000E+00  1.01886E+03  3.238E+00  4.696E+01  4.785E-10  2.079E+00
   1   13    4     8     3    2.2233E+02  3.0355E-17   2.2883E+02  6.509E+00  0.000E+00  0.000E+00  1.01265E+03  3.274E+00  4.748E+01  4.838E-18  2.091E+00
   1   13    3     8     4    2.2883E+02  0.0000E+00   2.3534E+02  6.509E+00  0.000E+00  0.000E+00  1.00644E+03  3.318E+00  4.811E+01  0.000E+00  2.106E+00
   1   13    2     8     5    2.3534E+02  3.1348E-17   2.4185E+02  6.509E+00  0.000E+00  0.000E+00  1.00022E+03  3.344E+00  4.849E+01  4.941E-18  2.115E+00
   1   13    1     8     6    2.4185E+02  1.9072E-16   2.4576E+02  3.905E+00  0.000E+00  0.000E+00  9.95250E+02  3.375E+00  4.893E+01  2.992E-17  2.125E+00



 UBDSV3 SAVING "     NETRECHARGE" ON UNIT 100 AT TIME STEP  1, STRESS PERIOD   2
 UBDSV3 SAVING "    NETDISCHARGE" ON UNIT 101 AT TIME STEP  1, STRESS PERIOD   2
 UBDSV3 SAVING "           GW ET" ON UNIT  61 AT TIME STEP  1, STRESS PERIOD   2
 UBDSV3 SAVING "    UZF RECHARGE" ON UNIT  61 AT TIME STEP  1, STRESS PERIOD   2
 UBDSV3 SAVING " SURFACE LEAKAGE" ON UNIT  61 AT TIME STEP  1, STRESS PERIOD   2
 UBDSV3 SAVING "       HORT+DUNN" ON UNIT  61 AT TIME STEP  1, STRESS PERIOD   2
 UBDSV3 SAVING "  STORAGE CHANGE" ON UNIT  61 AT TIME STEP  1, STRESS PERIOD   2


UNSATURATED ZONE PACKAGE VOLUMETRIC BUDGET FOR  TIME STEP     1 STRESS PERIOD    2
  ------------------------------------------------------------------------------



     CUMULATIVE VOLUMES      L**3       RATES FOR THIS TIME STEP      L**3/T
     ------------------                 ------------------------

           IN:                                      IN:
           ---                                      ---
        INFILTRATION =     7861067.8926          INFILTRATION =           2.9000

          OUT:                                     OUT:
          ----                                     ----
              UZF ET =        1357.7706                UZF ET =           0.0164
        UZF RECHARGE =     7621246.6355          UZF RECHARGE =           0.0006

            IN - OUT =      238463.4865              IN - OUT =           2.8830

          STORAGE:                                 STORAGE:
          --------                                 --------
      STORAGE CHANGE =      238463.4910        STORAGE CHANGE =           2.8830

 PERCENT DISCREPANCY IS DIFFERENCE BETWEEN IN-OUT MINUS CHANGE IN STORAGE
 DIVIDED BY THE AVERAGE OF IN AND OUT TIMES 100

 PERCENT DISCREPANCY =           0.00     PERCENT DISCREPANCY =           0.00






1
  VOLUMETRIC BUDGET FOR ENTIRE MODEL AT END OF TIME STEP    1, STRESS PERIOD   2
  ------------------------------------------------------------------------------

     CUMULATIVE VOLUMES      L**3       RATES FOR THIS TIME STEP      L**3/T
     ------------------                 ------------------------

           IN:                                      IN:
           ---                                      ---
             STORAGE =     2708019.5000               STORAGE =          32.7399
       CONSTANT HEAD =           0.0000         CONSTANT HEAD =           0.0000
               WELLS =           0.0000                 WELLS =           0.0000
     HEAD DEP BOUNDS =     8472518.0000       HEAD DEP BOUNDS =           3.1256
      STREAM LEAKAGE =    10787467.0000        STREAM LEAKAGE =           4.1426
        UZF RECHARGE =     7621252.0000          UZF RECHARGE =       5.6382E-04
               GW ET =           0.0000                 GW ET =           0.0000
     SURFACE LEAKAGE =           0.0000       SURFACE LEAKAGE =           0.0000

            TOTAL IN =    29589256.0000              TOTAL IN =          40.0087

          OUT:                                     OUT:
          ----                                     ----
             STORAGE =         854.8661               STORAGE =       1.0335E-02
       CONSTANT HEAD =           0.0000         CONSTANT HEAD =           0.0000
               WELLS =    29588522.0000                 WELLS =          40.0000
     HEAD DEP BOUNDS =           0.0000       HEAD DEP BOUNDS =           0.0000
      STREAM LEAKAGE =           0.0000        STREAM LEAKAGE =           0.0000
        UZF RECHARGE =           0.0000          UZF RECHARGE =           0.0000
               GW ET =           0.0000                 GW ET =           0.0000
     SURFACE LEAKAGE =           0.0000       SURFACE LEAKAGE =           0.0000

           TOTAL OUT =    29589376.0000             TOTAL OUT =          40.0103

            IN - OUT =        -120.0000              IN - OUT =      -1.6518E-03

 PERCENT DISCREPANCY =          -0.00     PERCENT DISCREPANCY =          -0.00






         TIME SUMMARY AT END OF TIME STEP    1 IN STRESS PERIOD    2
                    SECONDS     MINUTES      HOURS       DAYS        YEARS
                    -----------------------------------------------------------
   TIME STEP LENGTH  82713.      1378.6      22.976     0.95733     2.62102E-03
 STRESS PERIOD TIME  82713.      1378.6      22.976     0.95733     2.62102E-03
         TOTAL TIME 2.71071E+06  45179.      752.98      31.374     8.58973E-02
1
 
 SOLVING FOR HEAD 
                                                   Max.-Head-Change                         Max.-Flux-Residual
  Residual-Control   Outer-Iter.   Inner-Iter.     Column Row Layer    Maximum-Head-Change  Column Row Layer    Maximum-Flux-Residual          L2-NORM 
          0                 1           2             4    8     1      -0.6009262167E-01       4    8    1        -0.3016462427E+01      0.9458047278E+01
          0                 2           2             4    8     1       0.5954613259E-02       4    8    1         0.3016450474E+00      0.9458008723E+00
          0                 3           2             4    8     1      -0.5310479689E-03       4    8    1        -0.2714806938E-01      0.8512212553E-01
          0                 4           1             4    8     1       0.4215096448E-04       4    8    1         0.2174560806E-02      0.6818283701E-02

    ------------------------------------------------
       NWT REQUIRED            4 OUTER ITERATIONS 
       AND A TOTAL OF          7 INNER ITERATIONS.
    ------------------------------------------------

 OUTPUT CONTROL WAS SPECIFIED FOR A NONEXISTENT TIME STEP
 OR OUTPUT CONTROL DATA ARE NOT ENTERED IN ASCENDING ORDER
 OUTPUT CONTROL STRESS PERIOD    1   TIME STEP   10
 MODEL STRESS PERIOD    2   TIME STEP    2
 APPLYING THE SPECIFIED OUTPUT CONTROL TO THE CURRENT TIME STEP

 OUTPUT CONTROL FOR STRESS PERIOD    2   TIME STEP    2
    PRINT BUDGET
    SAVE BUDGET

            WELLS   PERIOD    2   STEP   2
 WELL      1   LAYER   1   ROW     6   COL     4   RATE    -4.00000    
 WELL      2   LAYER   1   ROW     6   COL     5   RATE    -4.00000    
 WELL      3   LAYER   1   ROW     7   COL     4   RATE    -4.00000    
 WELL      4   LAYER   1   ROW     7   COL     5   RATE    -4.00000    
 WELL      5   LAYER   1   ROW     8   COL     4   RATE    -4.00000    
 WELL      6   LAYER   1   ROW     8   COL     5   RATE    -4.00000    
 WELL      7   LAYER   1   ROW     9   COL     4   RATE    -4.00000    
 WELL      8   LAYER   1   ROW     9   COL     5   RATE    -4.00000    
 WELL      9   LAYER   1   ROW    10   COL     4   RATE    -4.00000    
 WELL     10   LAYER   1   ROW    10   COL     5   RATE    -4.00000    

  HEAD DEP BOUNDS   PERIOD    2   STEP   2
 BOUNDARY      1   LAYER   1   ROW    13   COL     1   RATE    0.757809    
 BOUNDARY      2   LAYER   1   ROW    14   COL     9   RATE     2.36782    



 STREAM LISTING     PERIOD      2   STEP        2

 LAYER ROW COL. STREAM  RCH.  FLOW INTO     FLOW TO   FLOW OUT OF   OVRLND.     DIRECT     STREAM       STREAM     STREAM     STREAM   STREAMBED  STREAMBED
                SEG.NO.  NO.  STRM. RCH.    AQUIFER    STRM. RCH.    RUNOFF     PRECIP       ET          HEAD       DEPTH      WIDTH   CONDCTNC.   GRADIENT

   1    1    1     1     1    2.5000E+01  2.4515E-09   2.5000E+01  0.000E+00  0.000E+00  0.000E+00  1.09423E+03  1.178E+00  1.304E+01  5.867E-10  1.393E+00
   1    2    2     1     2    2.5000E+01  3.8085E-09   2.5000E+01  0.000E+00  0.000E+00  0.000E+00  1.08924E+03  1.177E+00  1.302E+01  9.117E-10  1.392E+00
   1    3    3     1     3    2.5000E+01  3.2661E-09   2.5000E+01  0.000E+00  0.000E+00  0.000E+00  1.08360E+03  1.178E+00  1.303E+01  7.818E-10  1.393E+00
   1    3    4     1     4    2.5000E+01  3.0219E-09   2.5000E+01  0.000E+00  0.000E+00  0.000E+00  1.07859E+03  1.178E+00  1.303E+01  7.233E-10  1.393E+00
   1    4    5     2     1    1.5000E+01  3.0290E-01   1.4697E+01  0.000E+00  0.000E+00  0.000E+00  1.07282E+03  8.834E-01  1.200E+01  7.800E-02  1.294E+00
   1    5    6     2     2    1.4697E+01  2.3243E-01   1.4465E+01  0.000E+00  0.000E+00  0.000E+00  1.06738E+03  8.738E-01  1.200E+01  6.000E-02  1.291E+00
   1    6    6     2     3    1.4465E+01  2.3193E-01   1.4233E+01  0.000E+00  0.000E+00  0.000E+00  1.06266E+03  8.654E-01  1.200E+01  6.000E-02  1.288E+00
   1    7    6     2     4    1.4233E+01  2.3142E-01   1.4001E+01  0.000E+00  0.000E+00  0.000E+00  1.05793E+03  8.570E-01  1.200E+01  6.000E-02  1.286E+00
   1    8    6     2     5    1.4001E+01  2.3091E-01   1.3770E+01  0.000E+00  0.000E+00  0.000E+00  1.05321E+03  8.486E-01  1.200E+01  6.000E-02  1.283E+00
   1    3    5     3     1    1.0000E+01  2.8252E-01   9.7175E+00  0.000E+00  0.000E+00  0.000E+00  1.07555E+03  1.909E+00  9.636E+00  7.227E-02  1.955E+00
   1    3    6     3     2    9.7175E+00  2.4905E-01   9.4684E+00  0.000E+00  0.000E+00  0.000E+00  1.07264E+03  1.727E+00  8.909E+00  6.682E-02  1.864E+00
   1    3    7     3     3    9.4684E+00  1.9718E-01   9.2712E+00  0.000E+00  0.000E+00  0.000E+00  1.06987E+03  1.555E+00  8.218E+00  5.547E-02  1.777E+00
   1    4    8     3     4    9.2712E+00  2.2567E-01   9.0456E+00  0.000E+00  0.000E+00  0.000E+00  1.06682E+03  1.364E+00  7.455E+00  6.709E-02  1.682E+00
   1    5    8     3     5    9.0456E+00  1.5790E-01   8.8877E+00  0.000E+00  0.000E+00  0.000E+00  1.06362E+03  1.164E+00  6.655E+00  4.991E-02  1.582E+00
   1    6    8     3     6    8.8877E+00  5.5980E-02   8.8317E+00  0.000E+00  0.000E+00  0.000E+00  1.06158E+03  1.036E+00  6.145E+00  1.844E-02  1.518E+00
   1    5   10     4     1    1.0000E+01  9.0919E-02   9.9091E+00  0.000E+00  0.000E+00  0.000E+00  1.07836E+03  6.368E-01  1.000E+01  2.500E-02  1.212E+00
   1    5    9     4     2    9.9091E+00  1.8158E-01   9.7275E+00  0.000E+00  0.000E+00  0.000E+00  1.07154E+03  6.315E-01  1.000E+01  5.000E-02  1.211E+00
   1    6    8     4     3    9.7275E+00  1.2689E-01   9.6006E+00  0.000E+00  0.000E+00  0.000E+00  1.06381E+03  6.256E-01  1.000E+01  3.500E-02  1.209E+00
   1    6    8     5     1    1.8432E+01  3.3262E-09   1.8432E+01  0.000E+00  0.000E+00  0.000E+00  1.05883E+03  8.293E-01  2.172E+01  8.686E-10  1.276E+00
   1    7    7     5     2    1.8432E+01  4.1514E-09   1.8432E+01  0.000E+00  0.000E+00  0.000E+00  1.05433E+03  8.286E-01  2.169E+01  1.084E-09  1.276E+00
   1    8    7     5     3    1.8432E+01  2.9126E-09   1.8432E+01  0.000E+00  0.000E+00  0.000E+00  1.05008E+03  8.296E-01  2.173E+01  7.606E-10  1.277E+00
   1    8    6     5     4    1.8432E+01  2.0836E-09   1.8432E+01  0.000E+00  0.000E+00  0.000E+00  1.04708E+03  8.303E-01  2.176E+01  5.440E-10  1.277E+00
   1    9    6     6     1    3.2203E+01  2.6507E-01   3.1938E+01  0.000E+00  0.000E+00  0.000E+00  1.04415E+03  1.418E+00  1.200E+01  6.000E-02  1.473E+00
   1   10    7     6     2    3.1938E+01  2.6465E-01   3.1673E+01  0.000E+00  0.000E+00  0.000E+00  1.03959E+03  1.411E+00  1.200E+01  6.000E-02  1.470E+00
   1   11    7     6     3    3.1673E+01  2.6423E-01   3.1409E+01  0.000E+00  0.000E+00  0.000E+00  1.03504E+03  1.404E+00  1.200E+01  6.000E-02  1.468E+00
   1   12    7     6     4    3.1409E+01  2.6380E-01   3.1145E+01  0.000E+00  0.000E+00  0.000E+00  1.03049E+03  1.397E+00  1.200E+01  6.000E-02  1.466E+00
   1   13    7     6     5    3.1145E+01  1.0540E-01   3.1040E+01  0.000E+00  0.000E+00  0.000E+00  1.02730E+03  1.392E+00  1.200E+01  2.400E-02  1.464E+00
   1   14    9     7     1    1.5000E+02  2.9539E-14   1.5000E+02  0.000E+00  0.000E+00  0.000E+00  1.03986E+03  2.283E+00  5.528E+01  5.591E-15  1.761E+00
   1   13    8     7     2    1.5000E+02  3.2486E-13   1.5000E+02  0.000E+00  0.000E+00  0.000E+00  1.03478E+03  2.283E+00  5.527E+01  6.150E-14  1.761E+00
   1   13    7     7     3    1.5000E+02  2.9539E-14   1.5000E+02  0.000E+00  0.000E+00  0.000E+00  1.02970E+03  2.283E+00  5.528E+01  5.591E-15  1.761E+00
   1   13    6     8     1    1.8104E+02  0.0000E+00   1.8104E+02  0.000E+00  0.000E+00  0.000E+00  1.02490E+03  3.023E+00  4.383E+01  0.000E+00  2.008E+00
   1   13    5     8     2    1.8104E+02  2.6787E-12   1.8104E+02  0.000E+00  0.000E+00  0.000E+00  1.01864E+03  3.014E+00  4.371E+01  4.454E-13  2.005E+00
   1   13    4     8     3    1.8104E+02  2.6787E-12   1.8104E+02  0.000E+00  0.000E+00  0.000E+00  1.01239E+03  3.014E+00  4.371E+01  4.454E-13  2.005E+00
   1   13    3     8     4    1.8104E+02  2.6787E-12   1.8104E+02  0.000E+00  0.000E+00  0.000E+00  1.00614E+03  3.014E+00  4.371E+01  4.454E-13  2.005E+00
   1   13    2     8     5    1.8104E+02  2.6787E-12   1.8104E+02  0.000E+00  0.000E+00  0.000E+00  9.99889E+02  3.014E+00  4.371E+01  4.454E-13  2.005E+00
   1   13    1     8     6    1.8104E+02  1.6099E-08   1.8104E+02  0.000E+00  0.000E+00  0.000E+00  9.94893E+02  3.018E+00  4.376E+01  2.675E-09  2.006E+00



 UBDSV3 SAVING "     NETRECHARGE" ON UNIT 100 AT TIME STEP  2, STRESS PERIOD   2
 UBDSV3 SAVING "    NETDISCHARGE" ON UNIT 101 AT TIME STEP  2, STRESS PERIOD   2
 UBDSV3 SAVING "           GW ET" ON UNIT  61 AT TIME STEP  2, STRESS PERIOD   2
 UBDSV3 SAVING "    UZF RECHARGE" ON UNIT  61 AT TIME STEP  2, STRESS PERIOD   2
 UBDSV3 SAVING " SURFACE LEAKAGE" ON UNIT  61 AT TIME STEP  2, STRESS PERIOD   2
 UBDSV3 SAVING "       HORT+DUNN" ON UNIT  61 AT TIME STEP  2, STRESS PERIOD   2
 UBDSV3 SAVING "  STORAGE CHANGE" ON UNIT  61 AT TIME STEP  2, STRESS PERIOD   2


UNSATURATED ZONE PACKAGE VOLUMETRIC BUDGET FOR  TIME STEP     2 STRESS PERIOD    2
  ------------------------------------------------------------------------------



     CUMULATIVE VOLUMES      L**3       RATES FOR THIS TIME STEP      L**3/T
     ------------------                 ------------------------

           IN:                                      IN:
           ---                                      ---
        INFILTRATION =     8124922.6084          INFILTRATION =           2.9000

          OUT:                                     OUT:
          ----                                     ----
              UZF ET =        4477.0051                UZF ET =           0.0343
        UZF RECHARGE =     7621246.6355          UZF RECHARGE =       0.0000E+00

            IN - OUT =      499198.9678              IN - OUT =           2.8657

          STORAGE:                                 STORAGE:
          --------                                 --------
      STORAGE CHANGE =      499198.9592        STORAGE CHANGE =           2.8657

 PERCENT DISCREPANCY IS DIFFERENCE BETWEEN IN-OUT MINUS CHANGE IN STORAGE
 DIVIDED BY THE AVERAGE OF IN AND OUT TIMES 100

 PERCENT DISCREPANCY =           0.00     PERCENT DISCREPANCY =           0.00






1
  VOLUMETRIC BUDGET FOR ENTIRE MODEL AT END OF TIME STEP    2, STRESS PERIOD   2
  ------------------------------------------------------------------------------

     CUMULATIVE VOLUMES      L**3       RATES FOR THIS TIME STEP      L**3/T
     ------------------                 ------------------------

           IN:                                      IN:
           ---                                      ---
             STORAGE =     5702522.0000               STORAGE =          32.9123
       CONSTANT HEAD =           0.0000         CONSTANT HEAD =           0.0000
               WELLS =           0.0000                 WELLS =           0.0000
     HEAD DEP BOUNDS =     8756902.0000       HEAD DEP BOUNDS =           3.1256
      STREAM LEAKAGE =    11147805.0000        STREAM LEAKAGE =           3.9604
        UZF RECHARGE =     7621252.0000          UZF RECHARGE =           0.0000
               GW ET =           0.0000                 GW ET =           0.0000
     SURFACE LEAKAGE =           0.0000       SURFACE LEAKAGE =           0.0000

            TOTAL IN =    33228482.0000              TOTAL IN =          39.9983

          OUT:                                     OUT:
          ----                                     ----
             STORAGE =         854.8661               STORAGE =           0.0000
       CONSTANT HEAD =           0.0000         CONSTANT HEAD =           0.0000
               WELLS =    33227898.0000                 WELLS =          40.0000
     HEAD DEP BOUNDS =           0.0000       HEAD DEP BOUNDS =           0.0000
      STREAM LEAKAGE =           0.0000        STREAM LEAKAGE =           0.0000
        UZF RECHARGE =           0.0000          UZF RECHARGE =           0.0000
               GW ET =           0.0000                 GW ET =           0.0000
     SURFACE LEAKAGE =           0.0000       SURFACE LEAKAGE =           0.0000

           TOTAL OUT =    33228752.0000             TOTAL OUT =          40.0000

            IN - OUT =        -270.0000              IN - OUT =      -1.6632E-03

 PERCENT DISCREPANCY =          -0.00     PERCENT DISCREPANCY =          -0.00






         TIME SUMMARY AT END OF TIME STEP    2 IN STRESS PERIOD    2
                    SECONDS     MINUTES      HOURS       DAYS        YEARS
                    -----------------------------------------------------------
   TIME STEP LENGTH  90984.      1516.4      25.273      1.0531     2.88312E-03
 STRESS PERIOD TIME 1.73697E+05  2895.0      48.249      2.0104     5.50414E-03
         TOTAL TIME 2.80170E+06  46695.      778.25      32.427     8.87804E-02
1
 
 SOLVING FOR HEAD 
                                                   Max.-Head-Change                         Max.-Flux-Residual
  Residual-Control   Outer-Iter.   Inner-Iter.     Column Row Layer    Maximum-Head-Change  Column Row Layer    Maximum-Flux-Residual          L2-NORM 
          0                 1           2             4    8     1      -0.6585848037E-01       4    8    1        -0.3006740624E+01      0.9341166775E+01
          0                 2           2             4    8     1       0.6525951242E-02       4    8    1         0.3006726270E+00      0.9341123362E+00
          0                 3           2             4    8     1      -0.5820014261E-03       4    8    1        -0.2706055389E-01      0.8407016333E-01
          0                 4           1             4    8     1       0.4619530212E-04       4    8    1         0.2167550791E-02      0.6734021446E-02

    ------------------------------------------------
       NWT REQUIRED            4 OUTER ITERATIONS 
       AND A TOTAL OF          7 INNER ITERATIONS.
    ------------------------------------------------

 OUTPUT CONTROL WAS SPECIFIED FOR A NONEXISTENT TIME STEP
 OR OUTPUT CONTROL DATA ARE NOT ENTERED IN ASCENDING ORDER
 OUTPUT CONTROL STRESS PERIOD    1   TIME STEP   15
 MODEL STRESS PERIOD    2   TIME STEP    3
 APPLYING THE SPECIFIED OUTPUT CONTROL TO THE CURRENT TIME STEP

 OUTPUT CONTROL FOR STRESS PERIOD    2   TIME STEP    3
    PRINT BUDGET
    PRINT HEAD FOR ALL LAYERS
    SAVE HEAD FOR ALL LAYERS
    SAVE BUDGET

            WELLS   PERIOD    2   STEP   3
 WELL      1   LAYER   1   ROW     6   COL     4   RATE    -4.00000    
 WELL      2   LAYER   1   ROW     6   COL     5   RATE    -4.00000    
 WELL      3   LAYER   1   ROW     7   COL     4   RATE    -4.00000    
 WELL      4   LAYER   1   ROW     7   COL     5   RATE    -4.00000    
 WELL      5   LAYER   1   ROW     8   COL     4   RATE    -4.00000    
 WELL      6   LAYER   1   ROW     8   COL     5   RATE    -4.00000    
 WELL      7   LAYER   1   ROW     9   COL     4   RATE    -4.00000    
 WELL      8   LAYER   1   ROW     9   COL     5   RATE    -4.00000    
 WELL      9   LAYER   1   ROW    10   COL     4   RATE    -4.00000    
 WELL     10   LAYER   1   ROW    10   COL     5   RATE    -4.00000    

  HEAD DEP BOUNDS   PERIOD    2   STEP   3
 BOUNDARY      1   LAYER   1   ROW    13   COL     1   RATE    0.757828    
 BOUNDARY      2   LAYER   1   ROW    14   COL     9   RATE     2.36784    



 STREAM LISTING     PERIOD      2   STEP        3

 LAYER ROW COL. STREAM  RCH.  FLOW INTO     FLOW TO   FLOW OUT OF   OVRLND.     DIRECT     STREAM       STREAM     STREAM     STREAM   STREAMBED  STREAMBED
                SEG.NO.  NO.  STRM. RCH.    AQUIFER    STRM. RCH.    RUNOFF     PRECIP       ET          HEAD       DEPTH      WIDTH   CONDCTNC.   GRADIENT

   1    1    1     1     1    2.5000E+01  2.4515E-09   2.5000E+01  0.000E+00  0.000E+00  0.000E+00  1.09423E+03  1.178E+00  1.304E+01  5.867E-10  1.393E+00
   1    2    2     1     2    2.5000E+01  3.8085E-09   2.5000E+01  0.000E+00  0.000E+00  0.000E+00  1.08924E+03  1.177E+00  1.302E+01  9.117E-10  1.392E+00
   1    3    3     1     3    2.5000E+01  3.2661E-09   2.5000E+01  0.000E+00  0.000E+00  0.000E+00  1.08360E+03  1.178E+00  1.303E+01  7.818E-10  1.393E+00
   1    3    4     1     4    2.5000E+01  3.0219E-09   2.5000E+01  0.000E+00  0.000E+00  0.000E+00  1.07859E+03  1.178E+00  1.303E+01  7.233E-10  1.393E+00
   1    4    5     2     1    1.5000E+01  3.0290E-01   1.4697E+01  0.000E+00  0.000E+00  0.000E+00  1.07282E+03  8.834E-01  1.200E+01  7.800E-02  1.294E+00
   1    5    6     2     2    1.4697E+01  2.3243E-01   1.4465E+01  0.000E+00  0.000E+00  0.000E+00  1.06738E+03  8.738E-01  1.200E+01  6.000E-02  1.291E+00
   1    6    6     2     3    1.4465E+01  2.3193E-01   1.4233E+01  0.000E+00  0.000E+00  0.000E+00  1.06266E+03  8.654E-01  1.200E+01  6.000E-02  1.288E+00
   1    7    6     2     4    1.4233E+01  2.3142E-01   1.4001E+01  0.000E+00  0.000E+00  0.000E+00  1.05793E+03  8.570E-01  1.200E+01  6.000E-02  1.286E+00
   1    8    6     2     5    1.4001E+01  2.3091E-01   1.3770E+01  0.000E+00  0.000E+00  0.000E+00  1.05321E+03  8.486E-01  1.200E+01  6.000E-02  1.283E+00
   1    3    5     3     1    1.0000E+01  2.8252E-01   9.7175E+00  0.000E+00  0.000E+00  0.000E+00  1.07555E+03  1.909E+00  9.636E+00  7.227E-02  1.955E+00
   1    3    6     3     2    9.7175E+00  2.4905E-01   9.4684E+00  0.000E+00  0.000E+00  0.000E+00  1.07264E+03  1.727E+00  8.909E+00  6.682E-02  1.864E+00
   1    3    7     3     3    9.4684E+00  1.9718E-01   9.2712E+00  0.000E+00  0.000E+00  0.000E+00  1.06987E+03  1.555E+00  8.218E+00  5.547E-02  1.777E+00
   1    4    8     3     4    9.2712E+00  2.2567E-01   9.0456E+00  0.000E+00  0.000E+00  0.000E+00  1.06682E+03  1.364E+00  7.455E+00  6.709E-02  1.682E+00
   1    5    8     3     5    9.0456E+00  1.5790E-01   8.8877E+00  0.000E+00  0.000E+00  0.000E+00  1.06362E+03  1.164E+00  6.655E+00  4.991E-02  1.582E+00
   1    6    8     3     6    8.8877E+00  5.5980E-02   8.8317E+00  0.000E+00  0.000E+00  0.000E+00  1.06158E+03  1.036E+00  6.145E+00  1.844E-02  1.518E+00
   1    5   10     4     1    1.0000E+01  9.0919E-02   9.9091E+00  0.000E+00  0.000E+00  0.000E+00  1.07836E+03  6.368E-01  1.000E+01  2.500E-02  1.212E+00
   1    5    9     4     2    9.9091E+00  1.8158E-01   9.7275E+00  0.000E+00  0.000E+00  0.000E+00  1.07154E+03  6.315E-01  1.000E+01  5.000E-02  1.211E+00
   1    6    8     4     3    9.7275E+00  1.2689E-01   9.6006E+00  0.000E+00  0.000E+00  0.000E+00  1.06381E+03  6.256E-01  1.000E+01  3.500E-02  1.209E+00
   1    6    8     5     1    1.8432E+01  3.3262E-09   1.8432E+01  0.000E+00  0.000E+00  0.000E+00  1.05883E+03  8.293E-01  2.172E+01  8.686E-10  1.276E+00
   1    7    7     5     2    1.8432E+01  4.1514E-09   1.8432E+01  0.000E+00  0.000E+00  0.000E+00  1.05433E+03  8.286E-01  2.169E+01  1.084E-09  1.276E+00
   1    8    7     5     3    1.8432E+01  2.9126E-09   1.8432E+01  0.000E+00  0.000E+00  0.000E+00  1.05008E+03  8.296E-01  2.173E+01  7.606E-10  1.277E+00
   1    8    6     5     4    1.8432E+01  2.0836E-09   1.8432E+01  0.000E+00  0.000E+00  0.000E+00  1.04708E+03  8.303E-01  2.176E+01  5.440E-10  1.277E+00
   1    9    6     6     1    3.2203E+01  2.6507E-01   3.1938E+01  0.000E+00  0.000E+00  0.000E+00  1.04415E+03  1.418E+00  1.200E+01  6.000E-02  1.473E+00
   1   10    7     6     2    3.1938E+01  2.6465E-01   3.1673E+01  0.000E+00  0.000E+00  0.000E+00  1.03959E+03  1.411E+00  1.200E+01  6.000E-02  1.470E+00
   1   11    7     6     3    3.1673E+01  2.6423E-01   3.1409E+01  0.000E+00  0.000E+00  0.000E+00  1.03504E+03  1.404E+00  1.200E+01  6.000E-02  1.468E+00
   1   12    7     6     4    3.1409E+01  2.6380E-01   3.1145E+01  0.000E+00  0.000E+00  0.000E+00  1.03049E+03  1.397E+00  1.200E+01  6.000E-02  1.466E+00
   1   13    7     6     5    3.1145E+01  1.0540E-01   3.1040E+01  0.000E+00  0.000E+00  0.000E+00  1.02730E+03  1.392E+00  1.200E+01  2.400E-02  1.464E+00
   1   14    9     7     1    1.5000E+02  2.9539E-14   1.5000E+02  0.000E+00  0.000E+00  0.000E+00  1.03986E+03  2.283E+00  5.528E+01  5.591E-15  1.761E+00
   1   13    8     7     2    1.5000E+02  3.2486E-13   1.5000E+02  0.000E+00  0.000E+00  0.000E+00  1.03478E+03  2.283E+00  5.527E+01  6.150E-14  1.761E+00
   1   13    7     7     3    1.5000E+02  2.9539E-14   1.5000E+02  0.000E+00  0.000E+00  0.000E+00  1.02970E+03  2.283E+00  5.528E+01  5.591E-15  1.761E+00
   1   13    6     8     1    1.8104E+02  0.0000E+00   1.8104E+02  0.000E+00  0.000E+00  0.000E+00  1.02490E+03  3.023E+00  4.383E+01  0.000E+00  2.008E+00
   1   13    5     8     2    1.8104E+02  2.6787E-12   1.8104E+02  0.000E+00  0.000E+00  0.000E+00  1.01864E+03  3.014E+00  4.371E+01  4.454E-13  2.005E+00
   1   13    4     8     3    1.8104E+02  2.6787E-12   1.8104E+02  0.000E+00  0.000E+00  0.000E+00  1.01239E+03  3.014E+00  4.371E+01  4.454E-13  2.005E+00
   1   13    3     8     4    1.8104E+02  2.6787E-12   1.8104E+02  0.000E+00  0.000E+00  0.000E+00  1.00614E+03  3.014E+00  4.371E+01  4.454E-13  2.005E+00
   1   13    2     8     5    1.8104E+02  2.6787E-12   1.8104E+02  0.000E+00  0.000E+00  0.000E+00  9.99889E+02  3.014E+00  4.371E+01  4.454E-13  2.005E+00
   1   13    1     8     6    1.8104E+02  1.6099E-08   1.8104E+02  0.000E+00  0.000E+00  0.000E+00  9.94893E+02  3.018E+00  4.376E+01  2.675E-09  2.006E+00



 UBDSV3 SAVING "     NETRECHARGE" ON UNIT 100 AT TIME STEP  3, STRESS PERIOD   2
 UBDSV3 SAVING "    NETDISCHARGE" ON UNIT 101 AT TIME STEP  3, STRESS PERIOD   2
 UBDSV3 SAVING "           GW ET" ON UNIT  61 AT TIME STEP  3, STRESS PERIOD   2
 UBDSV3 SAVING "    UZF RECHARGE" ON UNIT  61 AT TIME STEP  3, STRESS PERIOD   2
 UBDSV3 SAVING " SURFACE LEAKAGE" ON UNIT  61 AT TIME STEP  3, STRESS PERIOD   2
 UBDSV3 SAVING "       HORT+DUNN" ON UNIT  61 AT TIME STEP  3, STRESS PERIOD   2
 UBDSV3 SAVING "  STORAGE CHANGE" ON UNIT  61 AT TIME STEP  3, STRESS PERIOD   2


UNSATURATED ZONE PACKAGE VOLUMETRIC BUDGET FOR  TIME STEP     3 STRESS PERIOD    2
  ------------------------------------------------------------------------------



     CUMULATIVE VOLUMES      L**3       RATES FOR THIS TIME STEP      L**3/T
     ------------------                 ------------------------

           IN:                                      IN:
           ---                                      ---
        INFILTRATION =     8415162.7930          INFILTRATION =           2.9000

          OUT:                                     OUT:
          ----                                     ----
              UZF ET =        9852.5693                UZF ET =           0.0537
        UZF RECHARGE =     7621246.6355          UZF RECHARGE =       0.0000E+00

            IN - OUT =      784063.5882              IN - OUT =           2.8463

          STORAGE:                                 STORAGE:
          --------                                 --------
      STORAGE CHANGE =      784063.5658        STORAGE CHANGE =           2.8463

 PERCENT DISCREPANCY IS DIFFERENCE BETWEEN IN-OUT MINUS CHANGE IN STORAGE
 DIVIDED BY THE AVERAGE OF IN AND OUT TIMES 100

 PERCENT DISCREPANCY =           0.00     PERCENT DISCREPANCY =           0.00






1
              HEAD IN LAYER   1 AT END OF TIME STEP   3 IN STRESS PERIOD    2
  ---------------------------------------------------------------------------

           1       2       3       4       5       6       7       8       9      10
 ...................................................................................
   1  1003.42 1000.54 6999.00 6999.00 6999.00 6999.00 6999.00 6999.00 6999.00 6999.00
   2  1001.08  958.92  958.34 6999.00 6999.00  964.57  965.04  965.43 6999.00 6999.00
   3  6999.00  958.11  957.54  957.41  958.42  959.80  960.96  961.76 6999.00 6999.00
   4   959.24  957.77  957.09  956.89  957.21  957.53  958.61  960.89  962.16 6999.00
   5   958.88  957.05  956.30  955.99  956.33  957.01  957.58  958.45  959.85  964.33
   6   958.51  956.50  955.44  954.60  955.04  956.44  957.18  957.92  959.19  972.35
   7   958.28  956.17  954.98  954.04  954.58  956.13  956.91  957.49  960.94 6999.00
   8  6999.00  956.19  955.00  954.03  954.62  956.17  956.93  957.83  962.50 6999.00
   9  6999.00  956.80  955.61  954.65  955.19  956.68  957.52  958.78  963.62 6999.00
  10  6999.00  958.01  956.81  955.85  956.24  957.55  958.53  960.05  963.92  967.49
  11  6999.00  959.79  958.62  957.89  958.14  958.90  959.99  961.91  966.05 6999.00
  12   966.09  961.78  960.03  959.36  959.49  960.26  961.58  964.85  971.00 6999.00
  13   968.06  962.96  960.97  960.27  960.40  961.39  963.63  968.00  976.68 6999.00
  14  6999.00  964.13  961.65  961.37  961.75  963.19  966.51  973.67  982.69 6999.00
  15  6999.00 6999.00  965.65  965.65  965.93  966.46 6999.00 6999.00 6999.00 6999.00

 HEAD WILL BE SAVED ON UNIT   58 AT END OF TIME STEP    3, STRESS PERIOD    2
1
  VOLUMETRIC BUDGET FOR ENTIRE MODEL AT END OF TIME STEP    3, STRESS PERIOD   2
  ------------------------------------------------------------------------------

     CUMULATIVE VOLUMES      L**3       RATES FOR THIS TIME STEP      L**3/T
     ------------------                 ------------------------

           IN:                                      IN:
           ---                                      ---
             STORAGE =     8996471.0000               STORAGE =          32.9122
       CONSTANT HEAD =           0.0000         CONSTANT HEAD =           0.0000
               WELLS =           0.0000                 WELLS =           0.0000
     HEAD DEP BOUNDS =     9069728.0000       HEAD DEP BOUNDS =           3.1257
      STREAM LEAKAGE =    11544176.0000        STREAM LEAKAGE =           3.9604
        UZF RECHARGE =     7621252.0000          UZF RECHARGE =           0.0000
               GW ET =           0.0000                 GW ET =           0.0000
     SURFACE LEAKAGE =           0.0000       SURFACE LEAKAGE =           0.0000

            TOTAL IN =    37231628.0000              TOTAL IN =          39.9983

          OUT:                                     OUT:
          ----                                     ----
             STORAGE =         854.8661               STORAGE =           0.0000
       CONSTANT HEAD =           0.0000         CONSTANT HEAD =           0.0000
               WELLS =    37231212.0000                 WELLS =          40.0000
     HEAD DEP BOUNDS =           0.0000       HEAD DEP BOUNDS =           0.0000
      STREAM LEAKAGE =           0.0000        STREAM LEAKAGE =           0.0000
        UZF RECHARGE =           0.0000          UZF RECHARGE =           0.0000
               GW ET =           0.0000                 GW ET =           0.0000
     SURFACE LEAKAGE =           0.0000       SURFACE LEAKAGE =           0.0000

           TOTAL OUT =    37232068.0000             TOTAL OUT =          40.0000

            IN - OUT =        -440.0000              IN - OUT =      -1.6632E-03

 PERCENT DISCREPANCY =          -0.00     PERCENT DISCREPANCY =          -0.00






         TIME SUMMARY AT END OF TIME STEP    3 IN STRESS PERIOD    2
                    SECONDS     MINUTES      HOURS       DAYS        YEARS
                    -----------------------------------------------------------
   TIME STEP LENGTH 1.00083E+05  1668.0      27.801      1.1584     3.17143E-03
 STRESS PERIOD TIME 2.73780E+05  4563.0      76.050      3.1688     8.67557E-03
         TOTAL TIME 2.90178E+06  48363.      806.05      33.585     9.19519E-02
1
 
 SOLVING FOR HEAD 
                                                   Max.-Head-Change                         Max.-Flux-Residual
  Residual-Control   Outer-Iter.   Inner-Iter.     Column Row Layer    Maximum-Head-Change  Column Row Layer    Maximum-Flux-Residual          L2-NORM 
          0                 1           2             4    8     1      -0.7213933714E-01       4    8    1        -0.2995669009E+01      0.9218633355E+01
          0                 2           2             4    8     1       0.7148318524E-02       4    8    1         0.2995651596E+00      0.9218582315E+00
          0                 3           2             4    8     1      -0.6375058315E-03       4    8    1        -0.2696088481E-01      0.8296730125E-01
          0                 4           1             4    8     1       0.5060086320E-04       4    8    1         0.2159567295E-02      0.6645682112E-02

    ------------------------------------------------
       NWT REQUIRED            4 OUTER ITERATIONS 
       AND A TOTAL OF          7 INNER ITERATIONS.
    ------------------------------------------------

 OUTPUT CONTROL WAS SPECIFIED FOR A NONEXISTENT TIME STEP
 OR OUTPUT CONTROL DATA ARE NOT ENTERED IN ASCENDING ORDER
 OUTPUT CONTROL STRESS PERIOD    2   TIME STEP    1
 MODEL STRESS PERIOD    2   TIME STEP    4
 APPLYING THE SPECIFIED OUTPUT CONTROL TO THE CURRENT TIME STEP

 OUTPUT CONTROL FOR STRESS PERIOD    2   TIME STEP    4
    PRINT BUDGET
    SAVE BUDGET

            WELLS   PERIOD    2   STEP   4
 WELL      1   LAYER   1   ROW     6   COL     4   RATE    -4.00000    
 WELL      2   LAYER   1   ROW     6   COL     5   RATE    -4.00000    
 WELL      3   LAYER   1   ROW     7   COL     4   RATE    -4.00000    
 WELL      4   LAYER   1   ROW     7   COL     5   RATE    -4.00000    
 WELL      5   LAYER   1   ROW     8   COL     4   RATE    -4.00000    
 WELL      6   LAYER   1   ROW     8   COL     5   RATE    -4.00000    
 WELL      7   LAYER   1   ROW     9   COL     4   RATE    -4.00000    
 WELL      8   LAYER   1   ROW     9   COL     5   RATE    -4.00000    
 WELL      9   LAYER   1   ROW    10   COL     4   RATE    -4.00000    
 WELL     10   LAYER   1   ROW    10   COL     5   RATE    -4.00000    

  HEAD DEP BOUNDS   PERIOD    2   STEP   4
 BOUNDARY      1   LAYER   1   ROW    13   COL     1   RATE    0.757849    
 BOUNDARY      2   LAYER   1   ROW    14   COL     9   RATE     2.36786    



 STREAM LISTING     PERIOD      2   STEP        4

 LAYER ROW COL. STREAM  RCH.  FLOW INTO     FLOW TO   FLOW OUT OF   OVRLND.     DIRECT     STREAM       STREAM     STREAM     STREAM   STREAMBED  STREAMBED
                SEG.NO.  NO.  STRM. RCH.    AQUIFER    STRM. RCH.    RUNOFF     PRECIP       ET          HEAD       DEPTH      WIDTH   CONDCTNC.   GRADIENT

   1    1    1     1     1    2.5000E+01  2.4515E-09   2.5000E+01  0.000E+00  0.000E+00  0.000E+00  1.09423E+03  1.178E+00  1.304E+01  5.867E-10  1.393E+00
   1    2    2     1     2    2.5000E+01  3.8085E-09   2.5000E+01  0.000E+00  0.000E+00  0.000E+00  1.08924E+03  1.177E+00  1.302E+01  9.117E-10  1.392E+00
   1    3    3     1     3    2.5000E+01  3.2661E-09   2.5000E+01  0.000E+00  0.000E+00  0.000E+00  1.08360E+03  1.178E+00  1.303E+01  7.818E-10  1.393E+00
   1    3    4     1     4    2.5000E+01  3.0219E-09   2.5000E+01  0.000E+00  0.000E+00  0.000E+00  1.07859E+03  1.178E+00  1.303E+01  7.233E-10  1.393E+00
   1    4    5     2     1    1.5000E+01  3.0290E-01   1.4697E+01  0.000E+00  0.000E+00  0.000E+00  1.07282E+03  8.834E-01  1.200E+01  7.800E-02  1.294E+00
   1    5    6     2     2    1.4697E+01  2.3243E-01   1.4465E+01  0.000E+00  0.000E+00  0.000E+00  1.06738E+03  8.738E-01  1.200E+01  6.000E-02  1.291E+00
   1    6    6     2     3    1.4465E+01  2.3193E-01   1.4233E+01  0.000E+00  0.000E+00  0.000E+00  1.06266E+03  8.654E-01  1.200E+01  6.000E-02  1.288E+00
   1    7    6     2     4    1.4233E+01  2.3142E-01   1.4001E+01  0.000E+00  0.000E+00  0.000E+00  1.05793E+03  8.570E-01  1.200E+01  6.000E-02  1.286E+00
   1    8    6     2     5    1.4001E+01  2.3091E-01   1.3770E+01  0.000E+00  0.000E+00  0.000E+00  1.05321E+03  8.486E-01  1.200E+01  6.000E-02  1.283E+00
   1    3    5     3     1    1.0000E+01  2.8252E-01   9.7175E+00  0.000E+00  0.000E+00  0.000E+00  1.07555E+03  1.909E+00  9.636E+00  7.227E-02  1.955E+00
   1    3    6     3     2    9.7175E+00  2.4905E-01   9.4684E+00  0.000E+00  0.000E+00  0.000E+00  1.07264E+03  1.727E+00  8.909E+00  6.682E-02  1.864E+00
   1    3    7     3     3    9.4684E+00  1.9718E-01   9.2712E+00  0.000E+00  0.000E+00  0.000E+00  1.06987E+03  1.555E+00  8.218E+00  5.547E-02  1.777E+00
   1    4    8     3     4    9.2712E+00  2.2567E-01   9.0456E+00  0.000E+00  0.000E+00  0.000E+00  1.06682E+03  1.364E+00  7.455E+00  6.709E-02  1.682E+00
   1    5    8     3     5    9.0456E+00  1.5790E-01   8.8877E+00  0.000E+00  0.000E+00  0.000E+00  1.06362E+03  1.164E+00  6.655E+00  4.991E-02  1.582E+00
   1    6    8     3     6    8.8877E+00  5.5980E-02   8.8317E+00  0.000E+00  0.000E+00  0.000E+00  1.06158E+03  1.036E+00  6.145E+00  1.844E-02  1.518E+00
   1    5   10     4     1    1.0000E+01  9.0919E-02   9.9091E+00  0.000E+00  0.000E+00  0.000E+00  1.07836E+03  6.368E-01  1.000E+01  2.500E-02  1.212E+00
   1    5    9     4     2    9.9091E+00  1.8158E-01   9.7275E+00  0.000E+00  0.000E+00  0.000E+00  1.07154E+03  6.315E-01  1.000E+01  5.000E-02  1.211E+00
   1    6    8     4     3    9.7275E+00  1.2689E-01   9.6006E+00  0.000E+00  0.000E+00  0.000E+00  1.06381E+03  6.256E-01  1.000E+01  3.500E-02  1.209E+00
   1    6    8     5     1    1.8432E+01  3.3262E-09   1.8432E+01  0.000E+00  0.000E+00  0.000E+00  1.05883E+03  8.293E-01  2.172E+01  8.686E-10  1.276E+00
   1    7    7     5     2    1.8432E+01  4.1514E-09   1.8432E+01  0.000E+00  0.000E+00  0.000E+00  1.05433E+03  8.286E-01  2.169E+01  1.084E-09  1.276E+00
   1    8    7     5     3    1.8432E+01  2.9126E-09   1.8432E+01  0.000E+00  0.000E+00  0.000E+00  1.05008E+03  8.296E-01  2.173E+01  7.606E-10  1.277E+00
   1    8    6     5     4    1.8432E+01  2.0836E-09   1.8432E+01  0.000E+00  0.000E+00  0.000E+00  1.04708E+03  8.303E-01  2.176E+01  5.440E-10  1.277E+00
   1    9    6     6     1    3.2203E+01  2.6507E-01   3.1938E+01  0.000E+00  0.000E+00  0.000E+00  1.04415E+03  1.418E+00  1.200E+01  6.000E-02  1.473E+00
   1   10    7     6     2    3.1938E+01  2.6465E-01   3.1673E+01  0.000E+00  0.000E+00  0.000E+00  1.03959E+03  1.411E+00  1.200E+01  6.000E-02  1.470E+00
   1   11    7     6     3    3.1673E+01  2.6423E-01   3.1409E+01  0.000E+00  0.000E+00  0.000E+00  1.03504E+03  1.404E+00  1.200E+01  6.000E-02  1.468E+00
   1   12    7     6     4    3.1409E+01  2.6380E-01   3.1145E+01  0.000E+00  0.000E+00  0.000E+00  1.03049E+03  1.397E+00  1.200E+01  6.000E-02  1.466E+00
   1   13    7     6     5    3.1145E+01  1.0540E-01   3.1040E+01  0.000E+00  0.000E+00  0.000E+00  1.02730E+03  1.392E+00  1.200E+01  2.400E-02  1.464E+00
   1   14    9     7     1    1.5000E+02  2.9539E-14   1.5000E+02  0.000E+00  0.000E+00  0.000E+00  1.03986E+03  2.283E+00  5.528E+01  5.591E-15  1.761E+00
   1   13    8     7     2    1.5000E+02  3.2486E-13   1.5000E+02  0.000E+00  0.000E+00  0.000E+00  1.03478E+03  2.283E+00  5.527E+01  6.150E-14  1.761E+00
   1   13    7     7     3    1.5000E+02  2.9539E-14   1.5000E+02  0.000E+00  0.000E+00  0.000E+00  1.02970E+03  2.283E+00  5.528E+01  5.591E-15  1.761E+00
   1   13    6     8     1    1.8104E+02  0.0000E+00   1.8104E+02  0.000E+00  0.000E+00  0.000E+00  1.02490E+03  3.023E+00  4.383E+01  0.000E+00  2.008E+00
   1   13    5     8     2    1.8104E+02  2.6787E-12   1.8104E+02  0.000E+00  0.000E+00  0.000E+00  1.01864E+03  3.014E+00  4.371E+01  4.454E-13  2.005E+00
   1   13    4     8     3    1.8104E+02  2.6787E-12   1.8104E+02  0.000E+00  0.000E+00  0.000E+00  1.01239E+03  3.014E+00  4.371E+01  4.454E-13  2.005E+00
   1   13    3     8     4    1.8104E+02  2.6787E-12   1.8104E+02  0.000E+00  0.000E+00  0.000E+00  1.00614E+03  3.014E+00  4.371E+01  4.454E-13  2.005E+00
   1   13    2     8     5    1.8104E+02  2.6787E-12   1.8104E+02  0.000E+00  0.000E+00  0.000E+00  9.99889E+02  3.014E+00  4.371E+01  4.454E-13  2.005E+00
   1   13    1     8     6    1.8104E+02  1.6099E-08   1.8104E+02  0.000E+00  0.000E+00  0.000E+00  9.94893E+02  3.018E+00  4.376E+01  2.675E-09  2.006E+00



 UBDSV3 SAVING "     NETRECHARGE" ON UNIT 100 AT TIME STEP  4, STRESS PERIOD   2
 UBDSV3 SAVING "    NETDISCHARGE" ON UNIT 101 AT TIME STEP  4, STRESS PERIOD   2
 UBDSV3 SAVING "           GW ET" ON UNIT  61 AT TIME STEP  4, STRESS PERIOD   2
 UBDSV3 SAVING "    UZF RECHARGE" ON UNIT  61 AT TIME STEP  4, STRESS PERIOD   2
 UBDSV3 SAVING " SURFACE LEAKAGE" ON UNIT  61 AT TIME STEP  4, STRESS PERIOD   2
 UBDSV3 SAVING "       HORT+DUNN" ON UNIT  61 AT TIME STEP  4, STRESS PERIOD   2
 UBDSV3 SAVING "  STORAGE CHANGE" ON UNIT  61 AT TIME STEP  4, STRESS PERIOD   2


UNSATURATED ZONE PACKAGE VOLUMETRIC BUDGET FOR  TIME STEP     4 STRESS PERIOD    2
  ------------------------------------------------------------------------------



     CUMULATIVE VOLUMES      L**3       RATES FOR THIS TIME STEP      L**3/T
     ------------------                 ------------------------

           IN:                                      IN:
           ---                                      ---
        INFILTRATION =     8734426.9648          INFILTRATION =           2.9000

          OUT:                                     OUT:
          ----                                     ----
              UZF ET =       18102.0929                UZF ET =           0.0749
        UZF RECHARGE =     7621246.6355          UZF RECHARGE =       0.0000E+00

            IN - OUT =     1095078.2364              IN - OUT =           2.8251

          STORAGE:                                 STORAGE:
          --------                                 --------
      STORAGE CHANGE =     1095078.2273        STORAGE CHANGE =           2.8251

 PERCENT DISCREPANCY IS DIFFERENCE BETWEEN IN-OUT MINUS CHANGE IN STORAGE
 DIVIDED BY THE AVERAGE OF IN AND OUT TIMES 100

 PERCENT DISCREPANCY =           0.00     PERCENT DISCREPANCY =           0.00






1
  VOLUMETRIC BUDGET FOR ENTIRE MODEL AT END OF TIME STEP    4, STRESS PERIOD   2
  ------------------------------------------------------------------------------

     CUMULATIVE VOLUMES      L**3       RATES FOR THIS TIME STEP      L**3/T
     ------------------                 ------------------------

           IN:                                      IN:
           ---                                      ---
             STORAGE =    12619810.0000               STORAGE =          32.9122
       CONSTANT HEAD =           0.0000         CONSTANT HEAD =           0.0000
               WELLS =           0.0000                 WELLS =           0.0000
     HEAD DEP BOUNDS =     9413841.0000       HEAD DEP BOUNDS =           3.1257
      STREAM LEAKAGE =    11980184.0000        STREAM LEAKAGE =           3.9604
        UZF RECHARGE =     7621252.0000          UZF RECHARGE =           0.0000
               GW ET =           0.0000                 GW ET =           0.0000
     SURFACE LEAKAGE =           0.0000       SURFACE LEAKAGE =           0.0000

            TOTAL IN =    41635088.0000              TOTAL IN =          39.9983

          OUT:                                     OUT:
          ----                                     ----
             STORAGE =         854.8661               STORAGE =           0.0000
       CONSTANT HEAD =           0.0000         CONSTANT HEAD =           0.0000
               WELLS =    41634856.0000                 WELLS =          40.0000
     HEAD DEP BOUNDS =           0.0000       HEAD DEP BOUNDS =           0.0000
      STREAM LEAKAGE =           0.0000        STREAM LEAKAGE =           0.0000
        UZF RECHARGE =           0.0000          UZF RECHARGE =           0.0000
               GW ET =           0.0000                 GW ET =           0.0000
     SURFACE LEAKAGE =           0.0000       SURFACE LEAKAGE =           0.0000

           TOTAL OUT =    41635712.0000             TOTAL OUT =          40.0000

            IN - OUT =        -624.0000              IN - OUT =      -1.6632E-03

 PERCENT DISCREPANCY =          -0.00     PERCENT DISCREPANCY =          -0.00






         TIME SUMMARY AT END OF TIME STEP    4 IN STRESS PERIOD    2
                    SECONDS     MINUTES      HOURS       DAYS        YEARS
                    -----------------------------------------------------------
   TIME STEP LENGTH 1.10091E+05  1834.9      30.581      1.2742     3.48858E-03
 STRESS PERIOD TIME 3.83871E+05  6397.9      106.63      4.4430     1.21642E-02
         TOTAL TIME 3.01187E+06  50198.      836.63      34.860     9.54404E-02
1
 
 SOLVING FOR HEAD 
                                                   Max.-Head-Change                         Max.-Flux-Residual
  Residual-Control   Outer-Iter.   Inner-Iter.     Column Row Layer    Maximum-Head-Change  Column Row Layer    Maximum-Flux-Residual          L2-NORM 
          0                 1           2             4    8     1      -0.7897105680E-01       4    8    1        -0.2983054432E+01      0.9090595138E+01
          0                 2           2             4    8     1       0.7825268064E-02       4    8    1         0.2983033122E+00      0.9090534891E+00
          0                 3           2             4    8     1      -0.6978780549E-03       4    8    1        -0.2684732236E-01      0.8181488332E-01
          0                 4           1             4    8     1       0.5539279680E-04       4    8    1         0.2150470889E-02      0.6553373349E-02

    ------------------------------------------------
       NWT REQUIRED            4 OUTER ITERATIONS 
       AND A TOTAL OF          7 INNER ITERATIONS.
    ------------------------------------------------

 OUTPUT CONTROL FOR STRESS PERIOD    2   TIME STEP    5
    PRINT BUDGET
    SAVE BUDGET

            WELLS   PERIOD    2   STEP   5
 WELL      1   LAYER   1   ROW     6   COL     4   RATE    -4.00000    
 WELL      2   LAYER   1   ROW     6   COL     5   RATE    -4.00000    
 WELL      3   LAYER   1   ROW     7   COL     4   RATE    -4.00000    
 WELL      4   LAYER   1   ROW     7   COL     5   RATE    -4.00000    
 WELL      5   LAYER   1   ROW     8   COL     4   RATE    -4.00000    
 WELL      6   LAYER   1   ROW     8   COL     5   RATE    -4.00000    
 WELL      7   LAYER   1   ROW     9   COL     4   RATE    -4.00000    
 WELL      8   LAYER   1   ROW     9   COL     5   RATE    -4.00000    
 WELL      9   LAYER   1   ROW    10   COL     4   RATE    -4.00000    
 WELL     10   LAYER   1   ROW    10   COL     5   RATE    -4.00000    

  HEAD DEP BOUNDS   PERIOD    2   STEP   5
 BOUNDARY      1   LAYER   1   ROW    13   COL     1   RATE    0.757872    
 BOUNDARY      2   LAYER   1   ROW    14   COL     9   RATE     2.36789    



 STREAM LISTING     PERIOD      2   STEP        5

 LAYER ROW COL. STREAM  RCH.  FLOW INTO     FLOW TO   FLOW OUT OF   OVRLND.     DIRECT     STREAM       STREAM     STREAM     STREAM   STREAMBED  STREAMBED
                SEG.NO.  NO.  STRM. RCH.    AQUIFER    STRM. RCH.    RUNOFF     PRECIP       ET          HEAD       DEPTH      WIDTH   CONDCTNC.   GRADIENT

   1    1    1     1     1    2.5000E+01  2.4515E-09   2.5000E+01  0.000E+00  0.000E+00  0.000E+00  1.09423E+03  1.178E+00  1.304E+01  5.867E-10  1.393E+00
   1    2    2     1     2    2.5000E+01  3.8085E-09   2.5000E+01  0.000E+00  0.000E+00  0.000E+00  1.08924E+03  1.177E+00  1.302E+01  9.117E-10  1.392E+00
   1    3    3     1     3    2.5000E+01  3.2661E-09   2.5000E+01  0.000E+00  0.000E+00  0.000E+00  1.08360E+03  1.178E+00  1.303E+01  7.818E-10  1.393E+00
   1    3    4     1     4    2.5000E+01  3.0219E-09   2.5000E+01  0.000E+00  0.000E+00  0.000E+00  1.07859E+03  1.178E+00  1.303E+01  7.233E-10  1.393E+00
   1    4    5     2     1    1.5000E+01  3.0290E-01   1.4697E+01  0.000E+00  0.000E+00  0.000E+00  1.07282E+03  8.834E-01  1.200E+01  7.800E-02  1.294E+00
   1    5    6     2     2    1.4697E+01  2.3243E-01   1.4465E+01  0.000E+00  0.000E+00  0.000E+00  1.06738E+03  8.738E-01  1.200E+01  6.000E-02  1.291E+00
   1    6    6     2     3    1.4465E+01  2.3193E-01   1.4233E+01  0.000E+00  0.000E+00  0.000E+00  1.06266E+03  8.654E-01  1.200E+01  6.000E-02  1.288E+00
   1    7    6     2     4    1.4233E+01  2.3142E-01   1.4001E+01  0.000E+00  0.000E+00  0.000E+00  1.05793E+03  8.570E-01  1.200E+01  6.000E-02  1.286E+00
   1    8    6     2     5    1.4001E+01  2.3091E-01   1.3770E+01  0.000E+00  0.000E+00  0.000E+00  1.05321E+03  8.486E-01  1.200E+01  6.000E-02  1.283E+00
   1    3    5     3     1    1.0000E+01  2.8252E-01   9.7175E+00  0.000E+00  0.000E+00  0.000E+00  1.07555E+03  1.909E+00  9.636E+00  7.227E-02  1.955E+00
   1    3    6     3     2    9.7175E+00  2.4905E-01   9.4684E+00  0.000E+00  0.000E+00  0.000E+00  1.07264E+03  1.727E+00  8.909E+00  6.682E-02  1.864E+00
   1    3    7     3     3    9.4684E+00  1.9718E-01   9.2712E+00  0.000E+00  0.000E+00  0.000E+00  1.06987E+03  1.555E+00  8.218E+00  5.547E-02  1.777E+00
   1    4    8     3     4    9.2712E+00  2.2567E-01   9.0456E+00  0.000E+00  0.000E+00  0.000E+00  1.06682E+03  1.364E+00  7.455E+00  6.709E-02  1.682E+00
   1    5    8     3     5    9.0456E+00  1.5790E-01   8.8877E+00  0.000E+00  0.000E+00  0.000E+00  1.06362E+03  1.164E+00  6.655E+00  4.991E-02  1.582E+00
   1    6    8     3     6    8.8877E+00  5.5980E-02   8.8317E+00  0.000E+00  0.000E+00  0.000E+00  1.06158E+03  1.036E+00  6.145E+00  1.844E-02  1.518E+00
   1    5   10     4     1    1.0000E+01  9.0919E-02   9.9091E+00  0.000E+00  0.000E+00  0.000E+00  1.07836E+03  6.368E-01  1.000E+01  2.500E-02  1.212E+00
   1    5    9     4     2    9.9091E+00  1.8158E-01   9.7275E+00  0.000E+00  0.000E+00  0.000E+00  1.07154E+03  6.315E-01  1.000E+01  5.000E-02  1.211E+00
   1    6    8     4     3    9.7275E+00  1.2689E-01   9.6006E+00  0.000E+00  0.000E+00  0.000E+00  1.06381E+03  6.256E-01  1.000E+01  3.500E-02  1.209E+00
   1    6    8     5     1    1.8432E+01  3.3262E-09   1.8432E+01  0.000E+00  0.000E+00  0.000E+00  1.05883E+03  8.293E-01  2.172E+01  8.686E-10  1.276E+00
   1    7    7     5     2    1.8432E+01  4.1514E-09   1.8432E+01  0.000E+00  0.000E+00  0.000E+00  1.05433E+03  8.286E-01  2.169E+01  1.084E-09  1.276E+00
   1    8    7     5     3    1.8432E+01  2.9126E-09   1.8432E+01  0.000E+00  0.000E+00  0.000E+00  1.05008E+03  8.296E-01  2.173E+01  7.606E-10  1.277E+00
   1    8    6     5     4    1.8432E+01  2.0836E-09   1.8432E+01  0.000E+00  0.000E+00  0.000E+00  1.04708E+03  8.303E-01  2.176E+01  5.440E-10  1.277E+00
   1    9    6     6     1    3.2203E+01  2.6507E-01   3.1938E+01  0.000E+00  0.000E+00  0.000E+00  1.04415E+03  1.418E+00  1.200E+01  6.000E-02  1.473E+00
   1   10    7     6     2    3.1938E+01  2.6465E-01   3.1673E+01  0.000E+00  0.000E+00  0.000E+00  1.03959E+03  1.411E+00  1.200E+01  6.000E-02  1.470E+00
   1   11    7     6     3    3.1673E+01  2.6423E-01   3.1409E+01  0.000E+00  0.000E+00  0.000E+00  1.03504E+03  1.404E+00  1.200E+01  6.000E-02  1.468E+00
   1   12    7     6     4    3.1409E+01  2.6380E-01   3.1145E+01  0.000E+00  0.000E+00  0.000E+00  1.03049E+03  1.397E+00  1.200E+01  6.000E-02  1.466E+00
   1   13    7     6     5    3.1145E+01  1.0540E-01   3.1040E+01  0.000E+00  0.000E+00  0.000E+00  1.02730E+03  1.392E+00  1.200E+01  2.400E-02  1.464E+00
   1   14    9     7     1    1.5000E+02  2.9539E-14   1.5000E+02  0.000E+00  0.000E+00  0.000E+00  1.03986E+03  2.283E+00  5.528E+01  5.591E-15  1.761E+00
   1   13    8     7     2    1.5000E+02  3.2486E-13   1.5000E+02  0.000E+00  0.000E+00  0.000E+00  1.03478E+03  2.283E+00  5.527E+01  6.150E-14  1.761E+00
   1   13    7     7     3    1.5000E+02  2.9539E-14   1.5000E+02  0.000E+00  0.000E+00  0.000E+00  1.02970E+03  2.283E+00  5.528E+01  5.591E-15  1.761E+00
   1   13    6     8     1    1.8104E+02  0.0000E+00   1.8104E+02  0.000E+00  0.000E+00  0.000E+00  1.02490E+03  3.023E+00  4.383E+01  0.000E+00  2.008E+00
   1   13    5     8     2    1.8104E+02  2.6787E-12   1.8104E+02  0.000E+00  0.000E+00  0.000E+00  1.01864E+03  3.014E+00  4.371E+01  4.454E-13  2.005E+00
   1   13    4     8     3    1.8104E+02  2.6787E-12   1.8104E+02  0.000E+00  0.000E+00  0.000E+00  1.01239E+03  3.014E+00  4.371E+01  4.454E-13  2.005E+00
   1   13    3     8     4    1.8104E+02  2.6787E-12   1.8104E+02  0.000E+00  0.000E+00  0.000E+00  1.00614E+03  3.014E+00  4.371E+01  4.454E-13  2.005E+00
   1   13    2     8     5    1.8104E+02  2.6787E-12   1.8104E+02  0.000E+00  0.000E+00  0.000E+00  9.99889E+02  3.014E+00  4.371E+01  4.454E-13  2.005E+00
   1   13    1     8     6    1.8104E+02  1.6099E-08   1.8104E+02  0.000E+00  0.000E+00  0.000E+00  9.94893E+02  3.018E+00  4.376E+01  2.675E-09  2.006E+00



 UBDSV3 SAVING "     NETRECHARGE" ON UNIT 100 AT TIME STEP  5, STRESS PERIOD   2
 UBDSV3 SAVING "    NETDISCHARGE" ON UNIT 101 AT TIME STEP  5, STRESS PERIOD   2
 UBDSV3 SAVING "           GW ET" ON UNIT  61 AT TIME STEP  5, STRESS PERIOD   2
 UBDSV3 SAVING "    UZF RECHARGE" ON UNIT  61 AT TIME STEP  5, STRESS PERIOD   2
 UBDSV3 SAVING " SURFACE LEAKAGE" ON UNIT  61 AT TIME STEP  5, STRESS PERIOD   2
 UBDSV3 SAVING "       HORT+DUNN" ON UNIT  61 AT TIME STEP  5, STRESS PERIOD   2
 UBDSV3 SAVING "  STORAGE CHANGE" ON UNIT  61 AT TIME STEP  5, STRESS PERIOD   2


UNSATURATED ZONE PACKAGE VOLUMETRIC BUDGET FOR  TIME STEP     5 STRESS PERIOD    2
  ------------------------------------------------------------------------------



     CUMULATIVE VOLUMES      L**3       RATES FOR THIS TIME STEP      L**3/T
     ------------------                 ------------------------

           IN:                                      IN:
           ---                                      ---
        INFILTRATION =     9085617.5596          INFILTRATION =           2.9000

          OUT:                                     OUT:
          ----                                     ----
              UZF ET =       29980.2672                UZF ET =           0.0981
        UZF RECHARGE =     7621246.6355          UZF RECHARGE =       0.0000E+00

            IN - OUT =     1434390.6568              IN - OUT =           2.8019

          STORAGE:                                 STORAGE:
          --------                                 --------
      STORAGE CHANGE =     1434390.6551        STORAGE CHANGE =           2.8019

 PERCENT DISCREPANCY IS DIFFERENCE BETWEEN IN-OUT MINUS CHANGE IN STORAGE
 DIVIDED BY THE AVERAGE OF IN AND OUT TIMES 100

 PERCENT DISCREPANCY =           0.00     PERCENT DISCREPANCY =           0.00






1
  VOLUMETRIC BUDGET FOR ENTIRE MODEL AT END OF TIME STEP    5, STRESS PERIOD   2
  ------------------------------------------------------------------------------

     CUMULATIVE VOLUMES      L**3       RATES FOR THIS TIME STEP      L**3/T
     ------------------                 ------------------------

           IN:                                      IN:
           ---                                      ---
             STORAGE =    16605478.0000               STORAGE =          32.9121
       CONSTANT HEAD =           0.0000         CONSTANT HEAD =           0.0000
               WELLS =           0.0000                 WELLS =           0.0000
     HEAD DEP BOUNDS =     9792371.0000       HEAD DEP BOUNDS =           3.1258
      STREAM LEAKAGE =    12459793.0000        STREAM LEAKAGE =           3.9604
        UZF RECHARGE =     7621252.0000          UZF RECHARGE =           0.0000
               GW ET =           0.0000                 GW ET =           0.0000
     SURFACE LEAKAGE =           0.0000       SURFACE LEAKAGE =           0.0000

            TOTAL IN =    46478896.0000              TOTAL IN =          39.9983

          OUT:                                     OUT:
          ----                                     ----
             STORAGE =         854.8661               STORAGE =           0.0000
       CONSTANT HEAD =           0.0000         CONSTANT HEAD =           0.0000
               WELLS =    46478864.0000                 WELLS =          40.0000
     HEAD DEP BOUNDS =           0.0000       HEAD DEP BOUNDS =           0.0000
      STREAM LEAKAGE =           0.0000        STREAM LEAKAGE =           0.0000
        UZF RECHARGE =           0.0000          UZF RECHARGE =           0.0000
               GW ET =           0.0000                 GW ET =           0.0000
     SURFACE LEAKAGE =           0.0000       SURFACE LEAKAGE =           0.0000

           TOTAL OUT =    46479720.0000             TOTAL OUT =          40.0000

            IN - OUT =        -824.0000              IN - OUT =      -1.6632E-03

 PERCENT DISCREPANCY =          -0.00     PERCENT DISCREPANCY =          -0.00






         TIME SUMMARY AT END OF TIME STEP    5 IN STRESS PERIOD    2
                    SECONDS     MINUTES      HOURS       DAYS        YEARS
                    -----------------------------------------------------------
   TIME STEP LENGTH 1.21100E+05  2018.3      33.639      1.4016     3.83743E-03
 STRESS PERIOD TIME 5.04972E+05  8416.2      140.27      5.8446     1.60016E-02
         TOTAL TIME 3.13297E+06  52216.      870.27      36.261     9.92779E-02
1
 
 SOLVING FOR HEAD 
                                                   Max.-Head-Change                         Max.-Flux-Residual
  Residual-Control   Outer-Iter.   Inner-Iter.     Column Row Layer    Maximum-Head-Change  Column Row Layer    Maximum-Flux-Residual          L2-NORM 
          0                 1           2             4    8     1      -0.8638947040E-01       4    8    1        -0.2968686763E+01      0.8957250710E+01
          0                 2           2             4    8     1       0.8560349120E-02       4    8    1         0.2968660486E+00      0.8957179412E+00
          0                 3           2             4    8     1      -0.7634346429E-03       4    8    1        -0.2671797350E-01      0.8061469472E-01
          0                 4           1             4    8     1       0.6059623133E-04       4    8    1         0.2140110018E-02      0.6457238135E-02

    ------------------------------------------------
       NWT REQUIRED            4 OUTER ITERATIONS 
       AND A TOTAL OF          7 INNER ITERATIONS.
    ------------------------------------------------

 NO OUTPUT CONTROL FOR STRESS PERIOD    2   TIME STEP    6
 
 SOLVING FOR HEAD 
                                                   Max.-Head-Change                         Max.-Flux-Residual
  Residual-Control   Outer-Iter.   Inner-Iter.     Column Row Layer    Maximum-Head-Change  Column Row Layer    Maximum-Flux-Residual          L2-NORM 
          0                 1           2             4    8     1      -0.9442932516E-01       4    8    1        -0.2952328684E+01      0.8818843744E+01
          0                 2           2             4    8     1       0.9357003074E-02       4    8    1         0.2952296089E+00      0.8818759269E+00
          0                 3           2             4    8     1      -0.8344825221E-03       4    8    1        -0.2657070011E-01      0.7936892622E-01
          0                 4           1             4    8     1       0.6623552460E-04       4    8    1         0.2128313364E-02      0.6357451944E-02

    ------------------------------------------------
       NWT REQUIRED            4 OUTER ITERATIONS 
       AND A TOTAL OF          7 INNER ITERATIONS.
    ------------------------------------------------

 NO OUTPUT CONTROL FOR STRESS PERIOD    2   TIME STEP    7
 
 SOLVING FOR HEAD 
                                                   Max.-Head-Change                         Max.-Flux-Residual
  Residual-Control   Outer-Iter.   Inner-Iter.     Column Row Layer    Maximum-Head-Change  Column Row Layer    Maximum-Flux-Residual          L2-NORM 
          0                 1           2             4    8     1      -0.1031231578E+00       4    8    1        -0.2933713085E+01      0.8675664997E+01
          0                 2           2             4    8     1       0.1021845164E-01       4    8    1         0.2933672476E+00      0.8675564934E+00
          0                 3           2             4    8     1      -0.9113090384E-03       4    8    1        -0.2640309543E-01      0.7808019235E-01
          0                 4           1             4    8     1       0.7233348785E-04       4    8    1         0.2114888166E-02      0.6254224214E-02

    ------------------------------------------------
       NWT REQUIRED            4 OUTER ITERATIONS 
       AND A TOTAL OF          7 INNER ITERATIONS.
    ------------------------------------------------

 NO OUTPUT CONTROL FOR STRESS PERIOD    2   TIME STEP    8
 
 SOLVING FOR HEAD 
                                                   Max.-Head-Change                         Max.-Flux-Residual
  Residual-Control   Outer-Iter.   Inner-Iter.     Column Row Layer    Maximum-Head-Change  Column Row Layer    Maximum-Flux-Residual          L2-NORM 
          0                 1           2             4    8     1      -0.1125004498E+00       4    8    1        -0.2912556938E+01      0.8528037828E+01
          0                 2           2             4    8     1       0.1114761297E-01       4    8    1         0.2912506210E+00      0.8527919482E+00
          0                 3           2             4    8     1      -0.9941744709E-03       4    8    1        -0.2621260894E-01      0.7675140106E-01
          0                 4           1             4    8     1       0.7891077696E-04       4    8    1         0.2099630109E-02      0.6147787856E-02

    ------------------------------------------------
       NWT REQUIRED            4 OUTER ITERATIONS 
       AND A TOTAL OF          7 INNER ITERATIONS.
    ------------------------------------------------

 NO OUTPUT CONTROL FOR STRESS PERIOD    2   TIME STEP    9
 
 SOLVING FOR HEAD 
                                                   Max.-Head-Change                         Max.-Flux-Residual
  Residual-Control   Outer-Iter.   Inner-Iter.     Column Row Layer    Maximum-Head-Change  Column Row Layer    Maximum-Flux-Residual          L2-NORM 
          0                 1           2             4    8     1      -0.1225857466E+00       4    8    1        -0.2888549670E+01      0.8376322324E+01
          0                 2           2             4    8     1       0.1214691507E-01       4    8    1         0.2888486234E+00      0.8376182734E+00
          0                 3           2             4    8     1      -0.1083295398E-02       4    8    1        -0.2599644162E-01      0.7538579103E-01
          0                 4           1             4    8     1       0.8598458319E-04       4    8    1         0.2082314999E-02      0.6038402294E-02

    ------------------------------------------------
       NWT REQUIRED            4 OUTER ITERATIONS 
       AND A TOTAL OF          7 INNER ITERATIONS.
    ------------------------------------------------

 OUTPUT CONTROL FOR STRESS PERIOD    2   TIME STEP   10
    PRINT BUDGET
    SAVE BUDGET

            WELLS   PERIOD    2   STEP  10
 WELL      1   LAYER   1   ROW     6   COL     4   RATE    -4.00000    
 WELL      2   LAYER   1   ROW     6   COL     5   RATE    -4.00000    
 WELL      3   LAYER   1   ROW     7   COL     4   RATE    -4.00000    
 WELL      4   LAYER   1   ROW     7   COL     5   RATE    -4.00000    
 WELL      5   LAYER   1   ROW     8   COL     4   RATE    -4.00000    
 WELL      6   LAYER   1   ROW     8   COL     5   RATE    -4.00000    
 WELL      7   LAYER   1   ROW     9   COL     4   RATE    -4.00000    
 WELL      8   LAYER   1   ROW     9   COL     5   RATE    -4.00000    
 WELL      9   LAYER   1   ROW    10   COL     4   RATE    -4.00000    
 WELL     10   LAYER   1   ROW    10   COL     5   RATE    -4.00000    

  HEAD DEP BOUNDS   PERIOD    2   STEP  10
 BOUNDARY      1   LAYER   1   ROW    13   COL     1   RATE    0.758027    
 BOUNDARY      2   LAYER   1   ROW    14   COL     9   RATE     2.36804    



 STREAM LISTING     PERIOD      2   STEP       10

 LAYER ROW COL. STREAM  RCH.  FLOW INTO     FLOW TO   FLOW OUT OF   OVRLND.     DIRECT     STREAM       STREAM     STREAM     STREAM   STREAMBED  STREAMBED
                SEG.NO.  NO.  STRM. RCH.    AQUIFER    STRM. RCH.    RUNOFF     PRECIP       ET          HEAD       DEPTH      WIDTH   CONDCTNC.   GRADIENT

   1    1    1     1     1    2.5000E+01  2.4515E-09   2.5000E+01  0.000E+00  0.000E+00  0.000E+00  1.09423E+03  1.178E+00  1.304E+01  5.867E-10  1.393E+00
   1    2    2     1     2    2.5000E+01  3.8085E-09   2.5000E+01  0.000E+00  0.000E+00  0.000E+00  1.08924E+03  1.177E+00  1.302E+01  9.117E-10  1.392E+00
   1    3    3     1     3    2.5000E+01  3.2661E-09   2.5000E+01  0.000E+00  0.000E+00  0.000E+00  1.08360E+03  1.178E+00  1.303E+01  7.818E-10  1.393E+00
   1    3    4     1     4    2.5000E+01  3.0219E-09   2.5000E+01  0.000E+00  0.000E+00  0.000E+00  1.07859E+03  1.178E+00  1.303E+01  7.233E-10  1.393E+00
   1    4    5     2     1    1.5000E+01  3.0290E-01   1.4697E+01  0.000E+00  0.000E+00  0.000E+00  1.07282E+03  8.834E-01  1.200E+01  7.800E-02  1.294E+00
   1    5    6     2     2    1.4697E+01  2.3243E-01   1.4465E+01  0.000E+00  0.000E+00  0.000E+00  1.06738E+03  8.738E-01  1.200E+01  6.000E-02  1.291E+00
   1    6    6     2     3    1.4465E+01  2.3193E-01   1.4233E+01  0.000E+00  0.000E+00  0.000E+00  1.06266E+03  8.654E-01  1.200E+01  6.000E-02  1.288E+00
   1    7    6     2     4    1.4233E+01  2.3142E-01   1.4001E+01  0.000E+00  0.000E+00  0.000E+00  1.05793E+03  8.570E-01  1.200E+01  6.000E-02  1.286E+00
   1    8    6     2     5    1.4001E+01  2.3091E-01   1.3770E+01  0.000E+00  0.000E+00  0.000E+00  1.05321E+03  8.486E-01  1.200E+01  6.000E-02  1.283E+00
   1    3    5     3     1    1.0000E+01  2.8252E-01   9.7175E+00  0.000E+00  0.000E+00  0.000E+00  1.07555E+03  1.909E+00  9.636E+00  7.227E-02  1.955E+00
   1    3    6     3     2    9.7175E+00  2.4905E-01   9.4684E+00  0.000E+00  0.000E+00  0.000E+00  1.07264E+03  1.727E+00  8.909E+00  6.682E-02  1.864E+00
   1    3    7     3     3    9.4684E+00  1.9718E-01   9.2712E+00  0.000E+00  0.000E+00  0.000E+00  1.06987E+03  1.555E+00  8.218E+00  5.547E-02  1.777E+00
   1    4    8     3     4    9.2712E+00  2.2567E-01   9.0456E+00  0.000E+00  0.000E+00  0.000E+00  1.06682E+03  1.364E+00  7.455E+00  6.709E-02  1.682E+00
   1    5    8     3     5    9.0456E+00  1.5790E-01   8.8877E+00  0.000E+00  0.000E+00  0.000E+00  1.06362E+03  1.164E+00  6.655E+00  4.991E-02  1.582E+00
   1    6    8     3     6    8.8877E+00  5.5980E-02   8.8317E+00  0.000E+00  0.000E+00  0.000E+00  1.06158E+03  1.036E+00  6.145E+00  1.844E-02  1.518E+00
   1    5   10     4     1    1.0000E+01  9.0919E-02   9.9091E+00  0.000E+00  0.000E+00  0.000E+00  1.07836E+03  6.368E-01  1.000E+01  2.500E-02  1.212E+00
   1    5    9     4     2    9.9091E+00  1.8158E-01   9.7275E+00  0.000E+00  0.000E+00  0.000E+00  1.07154E+03  6.315E-01  1.000E+01  5.000E-02  1.211E+00
   1    6    8     4     3    9.7275E+00  1.2689E-01   9.6006E+00  0.000E+00  0.000E+00  0.000E+00  1.06381E+03  6.256E-01  1.000E+01  3.500E-02  1.209E+00
   1    6    8     5     1    1.8432E+01  3.3262E-09   1.8432E+01  0.000E+00  0.000E+00  0.000E+00  1.05883E+03  8.293E-01  2.172E+01  8.686E-10  1.276E+00
   1    7    7     5     2    1.8432E+01  4.1514E-09   1.8432E+01  0.000E+00  0.000E+00  0.000E+00  1.05433E+03  8.286E-01  2.169E+01  1.084E-09  1.276E+00
   1    8    7     5     3    1.8432E+01  2.9126E-09   1.8432E+01  0.000E+00  0.000E+00  0.000E+00  1.05008E+03  8.296E-01  2.173E+01  7.606E-10  1.277E+00
   1    8    6     5     4    1.8432E+01  2.0836E-09   1.8432E+01  0.000E+00  0.000E+00  0.000E+00  1.04708E+03  8.303E-01  2.176E+01  5.440E-10  1.277E+00
   1    9    6     6     1    3.2203E+01  2.6507E-01   3.1938E+01  0.000E+00  0.000E+00  0.000E+00  1.04415E+03  1.418E+00  1.200E+01  6.000E-02  1.473E+00
   1   10    7     6     2    3.1938E+01  2.6465E-01   3.1673E+01  0.000E+00  0.000E+00  0.000E+00  1.03959E+03  1.411E+00  1.200E+01  6.000E-02  1.470E+00
   1   11    7     6     3    3.1673E+01  2.6423E-01   3.1409E+01  0.000E+00  0.000E+00  0.000E+00  1.03504E+03  1.404E+00  1.200E+01  6.000E-02  1.468E+00
   1   12    7     6     4    3.1409E+01  2.6380E-01   3.1145E+01  0.000E+00  0.000E+00  0.000E+00  1.03049E+03  1.397E+00  1.200E+01  6.000E-02  1.466E+00
   1   13    7     6     5    3.1145E+01  1.0540E-01   3.1040E+01  0.000E+00  0.000E+00  0.000E+00  1.02730E+03  1.392E+00  1.200E+01  2.400E-02  1.464E+00
   1   14    9     7     1    1.5000E+02  2.9539E-14   1.5000E+02  0.000E+00  0.000E+00  0.000E+00  1.03986E+03  2.283E+00  5.528E+01  5.591E-15  1.761E+00
   1   13    8     7     2    1.5000E+02  3.2486E-13   1.5000E+02  0.000E+00  0.000E+00  0.000E+00  1.03478E+03  2.283E+00  5.527E+01  6.150E-14  1.761E+00
   1   13    7     7     3    1.5000E+02  2.9539E-14   1.5000E+02  0.000E+00  0.000E+00  0.000E+00  1.02970E+03  2.283E+00  5.528E+01  5.591E-15  1.761E+00
   1   13    6     8     1    1.8104E+02  0.0000E+00   1.8104E+02  0.000E+00  0.000E+00  0.000E+00  1.02490E+03  3.023E+00  4.383E+01  0.000E+00  2.008E+00
   1   13    5     8     2    1.8104E+02  2.6787E-12   1.8104E+02  0.000E+00  0.000E+00  0.000E+00  1.01864E+03  3.014E+00  4.371E+01  4.454E-13  2.005E+00
   1   13    4     8     3    1.8104E+02  2.6787E-12   1.8104E+02  0.000E+00  0.000E+00  0.000E+00  1.01239E+03  3.014E+00  4.371E+01  4.454E-13  2.005E+00
   1   13    3     8     4    1.8104E+02  2.6787E-12   1.8104E+02  0.000E+00  0.000E+00  0.000E+00  1.00614E+03  3.014E+00  4.371E+01  4.454E-13  2.005E+00
   1   13    2     8     5    1.8104E+02  2.6787E-12   1.8104E+02  0.000E+00  0.000E+00  0.000E+00  9.99889E+02  3.014E+00  4.371E+01  4.454E-13  2.005E+00
   1   13    1     8     6    1.8104E+02  1.6099E-08   1.8104E+02  0.000E+00  0.000E+00  0.000E+00  9.94893E+02  3.018E+00  4.376E+01  2.675E-09  2.006E+00



 UBDSV3 SAVING "     NETRECHARGE" ON UNIT 100 AT TIME STEP 10, STRESS PERIOD   2
 UBDSV3 SAVING "    NETDISCHARGE" ON UNIT 101 AT TIME STEP 10, STRESS PERIOD   2
 UBDSV3 SAVING "           GW ET" ON UNIT  61 AT TIME STEP 10, STRESS PERIOD   2
 UBDSV3 SAVING "    UZF RECHARGE" ON UNIT  61 AT TIME STEP 10, STRESS PERIOD   2
 UBDSV3 SAVING " SURFACE LEAKAGE" ON UNIT  61 AT TIME STEP 10, STRESS PERIOD   2
 UBDSV3 SAVING "       HORT+DUNN" ON UNIT  61 AT TIME STEP 10, STRESS PERIOD   2
 UBDSV3 SAVING "  STORAGE CHANGE" ON UNIT  61 AT TIME STEP 10, STRESS PERIOD   2


UNSATURATED ZONE PACKAGE VOLUMETRIC BUDGET FOR  TIME STEP    10 STRESS PERIOD    2
  ------------------------------------------------------------------------------



     CUMULATIVE VOLUMES      L**3       RATES FOR THIS TIME STEP      L**3/T
     ------------------                 ------------------------

           IN:                                      IN:
           ---                                      ---
        INFILTRATION =    11444076.8271          INFILTRATION =           2.9000

          OUT:                                     OUT:
          ----                                     ----
              UZF ET =      179846.1448                UZF ET =           0.2373
        UZF RECHARGE =     7621246.6355          UZF RECHARGE =       0.0000E+00

            IN - OUT =     3642984.0469              IN - OUT =           2.6627

          STORAGE:                                 STORAGE:
          --------                                 --------
      STORAGE CHANGE =     3642984.0161        STORAGE CHANGE =           2.6627

 PERCENT DISCREPANCY IS DIFFERENCE BETWEEN IN-OUT MINUS CHANGE IN STORAGE
 DIVIDED BY THE AVERAGE OF IN AND OUT TIMES 100

 PERCENT DISCREPANCY =           0.00     PERCENT DISCREPANCY =           0.00






1
  VOLUMETRIC BUDGET FOR ENTIRE MODEL AT END OF TIME STEP   10, STRESS PERIOD   2
  ------------------------------------------------------------------------------

     CUMULATIVE VOLUMES      L**3       RATES FOR THIS TIME STEP      L**3/T
     ------------------                 ------------------------

           IN:                                      IN:
           ---                                      ---
             STORAGE =    43371512.0000               STORAGE =          32.9118
       CONSTANT HEAD =           0.0000         CONSTANT HEAD =           0.0000
               WELLS =           0.0000                 WELLS =           0.0000
     HEAD DEP BOUNDS =    12334584.0000       HEAD DEP BOUNDS =           3.1261
      STREAM LEAKAGE =    15680662.0000        STREAM LEAKAGE =           3.9604
        UZF RECHARGE =     7621252.0000          UZF RECHARGE =           0.0000
               GW ET =           0.0000                 GW ET =           0.0000
     SURFACE LEAKAGE =           0.0000       SURFACE LEAKAGE =           0.0000

            TOTAL IN =    79008016.0000              TOTAL IN =          39.9983

          OUT:                                     OUT:
          ----                                     ----
             STORAGE =         854.8661               STORAGE =           0.0000
       CONSTANT HEAD =           0.0000         CONSTANT HEAD =           0.0000
               WELLS =    79009344.0000                 WELLS =          40.0000
     HEAD DEP BOUNDS =           0.0000       HEAD DEP BOUNDS =           0.0000
      STREAM LEAKAGE =           0.0000        STREAM LEAKAGE =           0.0000
        UZF RECHARGE =           0.0000          UZF RECHARGE =           0.0000
               GW ET =           0.0000                 GW ET =           0.0000
     SURFACE LEAKAGE =           0.0000       SURFACE LEAKAGE =           0.0000

           TOTAL OUT =    79010200.0000             TOTAL OUT =          40.0000

            IN - OUT =       -2184.0000              IN - OUT =      -1.6632E-03

 PERCENT DISCREPANCY =          -0.00     PERCENT DISCREPANCY =          -0.00






         TIME SUMMARY AT END OF TIME STEP   10 IN STRESS PERIOD    2
                    SECONDS     MINUTES      HOURS       DAYS        YEARS
                    -----------------------------------------------------------
   TIME STEP LENGTH 1.95033E+05  3250.6      54.176      2.2573     6.18023E-03
 STRESS PERIOD TIME 1.31823E+06  21971.      366.18      15.257     4.17723E-02
         TOTAL TIME 3.94623E+06  65771.      1096.2      45.674     0.12505    
1
 
 SOLVING FOR HEAD 
                                                   Max.-Head-Change                         Max.-Flux-Residual
  Residual-Control   Outer-Iter.   Inner-Iter.     Column Row Layer    Maximum-Head-Change  Column Row Layer    Maximum-Flux-Residual          L2-NORM 
          0                 1           2             4    8     1      -0.1333969876E+00       4    8    1        -0.2861359322E+01      0.8220893777E+01
          0                 2           2             4    8     1       0.1321813001E-01       4    8    1         0.2861280041E+00      0.8220729742E+00
          0                 3           2             4    8     1      -0.1178829913E-02       4    8    1        -0.2575160141E-01      0.7398673793E-01
          0                 4           1             4    8     1       0.9356745578E-04       4    8    1         0.2062703180E-02      0.5926337932E-02

    ------------------------------------------------
       NWT REQUIRED            4 OUTER ITERATIONS 
       AND A TOTAL OF          7 INNER ITERATIONS.
    ------------------------------------------------

 NO OUTPUT CONTROL FOR STRESS PERIOD    2   TIME STEP   11
 
 SOLVING FOR HEAD 
                                                   Max.-Head-Change                         Max.-Flux-Residual
  Residual-Control   Outer-Iter.   Inner-Iter.     Column Row Layer    Maximum-Head-Change  Column Row Layer    Maximum-Flux-Residual          L2-NORM 
          0                 1           2             4    8     1      -0.1449441751E+00       4    8    1        -0.2830649300E+01      0.8062136178E+01
          0                 2           2             4    8     1       0.1436224180E-01       4    8    1         0.2830550417E+00      0.8061944304E+00
          0                 3           2             4    8     1      -0.1280865842E-02       4    8    1        -0.2547505400E-01      0.7255769614E-01
          0                 4           1             4    8     1       0.1016663629E-03       4    8    1         0.2040551575E-02      0.5811871443E-02
          0                 5           1             4    8     1      -0.7082253685E-05       4    8    1        -0.1434487872E-03      0.4085689206E-03

    ------------------------------------------------
       NWT REQUIRED            5 OUTER ITERATIONS 
       AND A TOTAL OF          8 INNER ITERATIONS.
    ------------------------------------------------

 NO OUTPUT CONTROL FOR STRESS PERIOD    2   TIME STEP   12
 
 SOLVING FOR HEAD 
                                                   Max.-Head-Change                         Max.-Flux-Residual
  Residual-Control   Outer-Iter.   Inner-Iter.     Column Row Layer    Maximum-Head-Change  Column Row Layer    Maximum-Flux-Residual          L2-NORM 
          0                 1           2             4    8     1      -0.1572266888E+00       4    8    1        -0.2796068481E+01      0.7900434194E+01
          0                 2           2             4    8     1       0.1557917998E-01       4    8    1         0.2795945576E+00      0.7900210950E+00
          0                 3           2             4    8     1      -0.1389396992E-02       4    8    1        -0.2516363398E-01      0.7110212658E-01
          0                 4           2             4    8     1       0.1102808136E-03       4    8    1         0.2015606627E-02      0.5695280038E-02
          0                 5           1             4    8     1      -0.7682351779E-05       4    8    1        -0.1416951923E-03      0.4003726683E-03

    ------------------------------------------------
       NWT REQUIRED            5 OUTER ITERATIONS 
       AND A TOTAL OF          9 INNER ITERATIONS.
    ------------------------------------------------

 NO OUTPUT CONTROL FOR STRESS PERIOD    2   TIME STEP   13
 
 SOLVING FOR HEAD 
                                                   Max.-Head-Change                         Max.-Flux-Residual
  Residual-Control   Outer-Iter.   Inner-Iter.     Column Row Layer    Maximum-Head-Change  Column Row Layer    Maximum-Flux-Residual          L2-NORM 
          0                 1           2             4    8     1      -0.1702321551E+00       4    8    1        -0.2757278395E+01      0.7736180491E+01
          0                 2           2             4    8     1       0.1686770736E-01       4    8    1         0.2757126361E+00      0.7735922278E+00
          0                 3           2             4    8     1      -0.1504313135E-02       4    8    1        -0.2481428960E-01      0.6962356267E-01
          0                 4           2             4    8     1       0.1194020580E-03       4    8    1         0.1987623908E-02      0.5576846772E-02
          0                 5           1             4    8     1      -0.8317753385E-05       4    8    1        -0.1397280416E-03      0.3920469333E-03

    ------------------------------------------------
       NWT REQUIRED            5 OUTER ITERATIONS 
       AND A TOTAL OF          9 INNER ITERATIONS.
    ------------------------------------------------

 NO OUTPUT CONTROL FOR STRESS PERIOD    2   TIME STEP   14
 
 SOLVING FOR HEAD 
                                                   Max.-Head-Change                         Max.-Flux-Residual
  Residual-Control   Outer-Iter.   Inner-Iter.     Column Row Layer    Maximum-Head-Change  Column Row Layer    Maximum-Flux-Residual          L2-NORM 
          0                 1           2             4    8     1      -0.1839343678E+00       4    8    1        -0.2713957969E+01      0.7569759652E+01
          0                 2           2             4    8     1       0.1822521376E-01       4    8    1         0.2713771035E+00      0.7569462888E+00
          0                 3           2             4    8     1      -0.1625381623E-02       4    8    1        -0.2442412588E-01      0.6812546583E-01
          0                 4           2             4    8     1       0.1290116283E-03       4    8    1         0.1956371518E-02      0.5456848882E-02
          0                 5           1             4    8     1      -0.8987172080E-05       4    8    1        -0.1375310248E-03      0.3836111941E-03

    ------------------------------------------------
       NWT REQUIRED            5 OUTER ITERATIONS 
       AND A TOTAL OF          9 INNER ITERATIONS.
    ------------------------------------------------

 OUTPUT CONTROL FOR STRESS PERIOD    2   TIME STEP   15
    PRINT BUDGET
    PRINT HEAD FOR ALL LAYERS
    SAVE HEAD FOR ALL LAYERS
    SAVE BUDGET

            WELLS   PERIOD    2   STEP  15
 WELL      1   LAYER   1   ROW     6   COL     4   RATE    -4.00000    
 WELL      2   LAYER   1   ROW     6   COL     5   RATE    -4.00000    
 WELL      3   LAYER   1   ROW     7   COL     4   RATE    -4.00000    
 WELL      4   LAYER   1   ROW     7   COL     5   RATE    -4.00000    
 WELL      5   LAYER   1   ROW     8   COL     4   RATE    -4.00000    
 WELL      6   LAYER   1   ROW     8   COL     5   RATE    -4.00000    
 WELL      7   LAYER   1   ROW     9   COL     4   RATE    -4.00000    
 WELL      8   LAYER   1   ROW     9   COL     5   RATE    -4.00000    
 WELL      9   LAYER   1   ROW    10   COL     4   RATE    -4.00000    
 WELL     10   LAYER   1   ROW    10   COL     5   RATE    -4.00000    

  HEAD DEP BOUNDS   PERIOD    2   STEP  15
 BOUNDARY      1   LAYER   1   ROW    13   COL     1   RATE    0.758275    
 BOUNDARY      2   LAYER   1   ROW    14   COL     9   RATE     2.36829    



 STREAM LISTING     PERIOD      2   STEP       15

 LAYER ROW COL. STREAM  RCH.  FLOW INTO     FLOW TO   FLOW OUT OF   OVRLND.     DIRECT     STREAM       STREAM     STREAM     STREAM   STREAMBED  STREAMBED
                SEG.NO.  NO.  STRM. RCH.    AQUIFER    STRM. RCH.    RUNOFF     PRECIP       ET          HEAD       DEPTH      WIDTH   CONDCTNC.   GRADIENT

   1    1    1     1     1    2.5000E+01  2.4515E-09   2.5000E+01  0.000E+00  0.000E+00  0.000E+00  1.09423E+03  1.178E+00  1.304E+01  5.867E-10  1.393E+00
   1    2    2     1     2    2.5000E+01  3.8085E-09   2.5000E+01  0.000E+00  0.000E+00  0.000E+00  1.08924E+03  1.177E+00  1.302E+01  9.117E-10  1.392E+00
   1    3    3     1     3    2.5000E+01  3.2661E-09   2.5000E+01  0.000E+00  0.000E+00  0.000E+00  1.08360E+03  1.178E+00  1.303E+01  7.818E-10  1.393E+00
   1    3    4     1     4    2.5000E+01  3.0219E-09   2.5000E+01  0.000E+00  0.000E+00  0.000E+00  1.07859E+03  1.178E+00  1.303E+01  7.233E-10  1.393E+00
   1    4    5     2     1    1.5000E+01  3.0290E-01   1.4697E+01  0.000E+00  0.000E+00  0.000E+00  1.07282E+03  8.834E-01  1.200E+01  7.800E-02  1.294E+00
   1    5    6     2     2    1.4697E+01  2.3243E-01   1.4465E+01  0.000E+00  0.000E+00  0.000E+00  1.06738E+03  8.738E-01  1.200E+01  6.000E-02  1.291E+00
   1    6    6     2     3    1.4465E+01  2.3193E-01   1.4233E+01  0.000E+00  0.000E+00  0.000E+00  1.06266E+03  8.654E-01  1.200E+01  6.000E-02  1.288E+00
   1    7    6     2     4    1.4233E+01  2.3142E-01   1.4001E+01  0.000E+00  0.000E+00  0.000E+00  1.05793E+03  8.570E-01  1.200E+01  6.000E-02  1.286E+00
   1    8    6     2     5    1.4001E+01  2.3091E-01   1.3770E+01  0.000E+00  0.000E+00  0.000E+00  1.05321E+03  8.486E-01  1.200E+01  6.000E-02  1.283E+00
   1    3    5     3     1    1.0000E+01  2.8252E-01   9.7175E+00  0.000E+00  0.000E+00  0.000E+00  1.07555E+03  1.909E+00  9.636E+00  7.227E-02  1.955E+00
   1    3    6     3     2    9.7175E+00  2.4905E-01   9.4684E+00  0.000E+00  0.000E+00  0.000E+00  1.07264E+03  1.727E+00  8.909E+00  6.682E-02  1.864E+00
   1    3    7     3     3    9.4684E+00  1.9718E-01   9.2712E+00  0.000E+00  0.000E+00  0.000E+00  1.06987E+03  1.555E+00  8.218E+00  5.547E-02  1.777E+00
   1    4    8     3     4    9.2712E+00  2.2567E-01   9.0456E+00  0.000E+00  0.000E+00  0.000E+00  1.06682E+03  1.364E+00  7.455E+00  6.709E-02  1.682E+00
   1    5    8     3     5    9.0456E+00  1.5790E-01   8.8877E+00  0.000E+00  0.000E+00  0.000E+00  1.06362E+03  1.164E+00  6.655E+00  4.991E-02  1.582E+00
   1    6    8     3     6    8.8877E+00  5.5980E-02   8.8317E+00  0.000E+00  0.000E+00  0.000E+00  1.06158E+03  1.036E+00  6.145E+00  1.844E-02  1.518E+00
   1    5   10     4     1    1.0000E+01  9.0919E-02   9.9091E+00  0.000E+00  0.000E+00  0.000E+00  1.07836E+03  6.368E-01  1.000E+01  2.500E-02  1.212E+00
   1    5    9     4     2    9.9091E+00  1.8158E-01   9.7275E+00  0.000E+00  0.000E+00  0.000E+00  1.07154E+03  6.315E-01  1.000E+01  5.000E-02  1.211E+00
   1    6    8     4     3    9.7275E+00  1.2689E-01   9.6006E+00  0.000E+00  0.000E+00  0.000E+00  1.06381E+03  6.256E-01  1.000E+01  3.500E-02  1.209E+00
   1    6    8     5     1    1.8432E+01  3.3262E-09   1.8432E+01  0.000E+00  0.000E+00  0.000E+00  1.05883E+03  8.293E-01  2.172E+01  8.686E-10  1.276E+00
   1    7    7     5     2    1.8432E+01  4.1514E-09   1.8432E+01  0.000E+00  0.000E+00  0.000E+00  1.05433E+03  8.286E-01  2.169E+01  1.084E-09  1.276E+00
   1    8    7     5     3    1.8432E+01  2.9126E-09   1.8432E+01  0.000E+00  0.000E+00  0.000E+00  1.05008E+03  8.296E-01  2.173E+01  7.606E-10  1.277E+00
   1    8    6     5     4    1.8432E+01  2.0836E-09   1.8432E+01  0.000E+00  0.000E+00  0.000E+00  1.04708E+03  8.303E-01  2.176E+01  5.440E-10  1.277E+00
   1    9    6     6     1    3.2203E+01  2.6507E-01   3.1938E+01  0.000E+00  0.000E+00  0.000E+00  1.04415E+03  1.418E+00  1.200E+01  6.000E-02  1.473E+00
   1   10    7     6     2    3.1938E+01  2.6465E-01   3.1673E+01  0.000E+00  0.000E+00  0.000E+00  1.03959E+03  1.411E+00  1.200E+01  6.000E-02  1.470E+00
   1   11    7     6     3    3.1673E+01  2.6423E-01   3.1409E+01  0.000E+00  0.000E+00  0.000E+00  1.03504E+03  1.404E+00  1.200E+01  6.000E-02  1.468E+00
   1   12    7     6     4    3.1409E+01  2.6380E-01   3.1145E+01  0.000E+00  0.000E+00  0.000E+00  1.03049E+03  1.397E+00  1.200E+01  6.000E-02  1.466E+00
   1   13    7     6     5    3.1145E+01  1.0540E-01   3.1040E+01  0.000E+00  0.000E+00  0.000E+00  1.02730E+03  1.392E+00  1.200E+01  2.400E-02  1.464E+00
   1   14    9     7     1    1.5000E+02  2.9539E-14   1.5000E+02  0.000E+00  0.000E+00  0.000E+00  1.03986E+03  2.283E+00  5.528E+01  5.591E-15  1.761E+00
   1   13    8     7     2    1.5000E+02  3.2486E-13   1.5000E+02  0.000E+00  0.000E+00  0.000E+00  1.03478E+03  2.283E+00  5.527E+01  6.150E-14  1.761E+00
   1   13    7     7     3    1.5000E+02  2.9539E-14   1.5000E+02  0.000E+00  0.000E+00  0.000E+00  1.02970E+03  2.283E+00  5.528E+01  5.591E-15  1.761E+00
   1   13    6     8     1    1.8104E+02  0.0000E+00   1.8104E+02  0.000E+00  0.000E+00  0.000E+00  1.02490E+03  3.023E+00  4.383E+01  0.000E+00  2.008E+00
   1   13    5     8     2    1.8104E+02  2.6787E-12   1.8104E+02  0.000E+00  0.000E+00  0.000E+00  1.01864E+03  3.014E+00  4.371E+01  4.454E-13  2.005E+00
   1   13    4     8     3    1.8104E+02  2.6787E-12   1.8104E+02  0.000E+00  0.000E+00  0.000E+00  1.01239E+03  3.014E+00  4.371E+01  4.454E-13  2.005E+00
   1   13    3     8     4    1.8104E+02  2.6787E-12   1.8104E+02  0.000E+00  0.000E+00  0.000E+00  1.00614E+03  3.014E+00  4.371E+01  4.454E-13  2.005E+00
   1   13    2     8     5    1.8104E+02  2.6787E-12   1.8104E+02  0.000E+00  0.000E+00  0.000E+00  9.99889E+02  3.014E+00  4.371E+01  4.454E-13  2.005E+00
   1   13    1     8     6    1.8104E+02  1.6099E-08   1.8104E+02  0.000E+00  0.000E+00  0.000E+00  9.94893E+02  3.018E+00  4.376E+01  2.675E-09  2.006E+00



 UBDSV3 SAVING "     NETRECHARGE" ON UNIT 100 AT TIME STEP 15, STRESS PERIOD   2
 UBDSV3 SAVING "    NETDISCHARGE" ON UNIT 101 AT TIME STEP 15, STRESS PERIOD   2
 UBDSV3 SAVING "           GW ET" ON UNIT  61 AT TIME STEP 15, STRESS PERIOD   2
 UBDSV3 SAVING "    UZF RECHARGE" ON UNIT  61 AT TIME STEP 15, STRESS PERIOD   2
 UBDSV3 SAVING " SURFACE LEAKAGE" ON UNIT  61 AT TIME STEP 15, STRESS PERIOD   2
 UBDSV3 SAVING "       HORT+DUNN" ON UNIT  61 AT TIME STEP 15, STRESS PERIOD   2
 UBDSV3 SAVING "  STORAGE CHANGE" ON UNIT  61 AT TIME STEP 15, STRESS PERIOD   2


UNSATURATED ZONE PACKAGE VOLUMETRIC BUDGET FOR  TIME STEP    15 STRESS PERIOD    2
  ------------------------------------------------------------------------------



     CUMULATIVE VOLUMES      L**3       RATES FOR THIS TIME STEP      L**3/T
     ------------------                 ------------------------

           IN:                                      IN:
           ---                                      ---
        INFILTRATION =    15242399.1787          INFILTRATION =           2.9000

          OUT:                                     OUT:
          ----                                     ----
              UZF ET =      655788.0387                UZF ET =           0.4435
        UZF RECHARGE =     7621246.6355          UZF RECHARGE =       0.0000E+00

            IN - OUT =     6965364.5045              IN - OUT =           2.4565

          STORAGE:                                 STORAGE:
          --------                                 --------
      STORAGE CHANGE =     6965364.4964        STORAGE CHANGE =           2.4565

 PERCENT DISCREPANCY IS DIFFERENCE BETWEEN IN-OUT MINUS CHANGE IN STORAGE
 DIVIDED BY THE AVERAGE OF IN AND OUT TIMES 100

 PERCENT DISCREPANCY =           0.00     PERCENT DISCREPANCY =           0.00






1
              HEAD IN LAYER   1 AT END OF TIME STEP  15 IN STRESS PERIOD    2
  ---------------------------------------------------------------------------

           1       2       3       4       5       6       7       8       9      10
 ...................................................................................
   1  1003.40 1000.52 6999.00 6999.00 6999.00 6999.00 6999.00 6999.00 6999.00 6999.00
   2  1001.05  958.91  958.33 6999.00 6999.00  964.55  965.02  965.40 6999.00 6999.00
   3  6999.00  958.09  957.53  957.39  958.39  959.77  960.94  961.73 6999.00 6999.00
   4   959.21  957.74  957.07  956.86  957.18  957.52  958.58  960.87  962.14 6999.00
   5   958.86  957.02  956.26  955.78  956.14  956.96  957.56  958.44  959.83  964.32
   6   958.48  956.47  955.29  953.48  954.01  956.25  957.15  957.91  959.17  972.33
   7   958.26  956.14  954.81  952.74  953.40  955.90  956.87  957.48  960.92 6999.00
   8  6999.00  956.16  954.84  952.71  953.43  955.94  956.89  957.81  962.48 6999.00
   9  6999.00  956.78  955.46  953.35  954.02  956.44  957.49  958.76  963.60 6999.00
  10  6999.00  957.98  956.68  954.71  955.22  957.35  958.49  960.03  963.89  967.47
  11  6999.00  959.77  958.58  957.68  957.94  958.85  959.98  961.89  966.02 6999.00
  12   966.07  961.76  960.02  959.32  959.46  960.24  961.57  964.83  970.97 6999.00
  13   968.05  962.95  960.95  960.26  960.39  961.38  963.61  967.99  976.66 6999.00
  14  6999.00  964.10  961.63  961.35  961.72  963.17  966.49  973.65  982.68 6999.00
  15  6999.00 6999.00  965.62  965.63  965.91  966.44 6999.00 6999.00 6999.00 6999.00

 HEAD WILL BE SAVED ON UNIT   58 AT END OF TIME STEP   15, STRESS PERIOD    2
1
  VOLUMETRIC BUDGET FOR ENTIRE MODEL AT END OF TIME STEP   15, STRESS PERIOD   2
  ------------------------------------------------------------------------------

     CUMULATIVE VOLUMES      L**3       RATES FOR THIS TIME STEP      L**3/T
     ------------------                 ------------------------

           IN:                                      IN:
           ---                                      ---
             STORAGE =    86479864.0000               STORAGE =          32.9131
       CONSTANT HEAD =           0.0000         CONSTANT HEAD =           0.0000
               WELLS =           0.0000                 WELLS =           0.0000
     HEAD DEP BOUNDS =    16429398.0000       HEAD DEP BOUNDS =           3.1266
      STREAM LEAKAGE =    20867906.0000        STREAM LEAKAGE =           3.9604
        UZF RECHARGE =     7621252.0000          UZF RECHARGE =           0.0000
               GW ET =           0.0000                 GW ET =           0.0000
     SURFACE LEAKAGE =           0.0000       SURFACE LEAKAGE =           0.0000

            TOTAL IN =   131398416.0000              TOTAL IN =          40.0001

          OUT:                                     OUT:
          ----                                     ----
             STORAGE =         854.8661               STORAGE =           0.0000
       CONSTANT HEAD =           0.0000         CONSTANT HEAD =           0.0000
               WELLS =   131399992.0000                 WELLS =          40.0000
     HEAD DEP BOUNDS =           0.0000       HEAD DEP BOUNDS =           0.0000
      STREAM LEAKAGE =           0.0000        STREAM LEAKAGE =           0.0000
        UZF RECHARGE =           0.0000          UZF RECHARGE =           0.0000
               GW ET =           0.0000                 GW ET =           0.0000
     SURFACE LEAKAGE =           0.0000       SURFACE LEAKAGE =           0.0000

           TOTAL OUT =   131400848.0000             TOTAL OUT =          40.0000

            IN - OUT =       -2432.0000              IN - OUT =       1.0681E-04

 PERCENT DISCREPANCY =          -0.00     PERCENT DISCREPANCY =           0.00






         TIME SUMMARY AT END OF TIME STEP   15 IN STRESS PERIOD    2
                    SECONDS     MINUTES      HOURS       DAYS        YEARS
                    -----------------------------------------------------------
   TIME STEP LENGTH 3.14103E+05  5235.0      87.251      3.6354     9.95332E-03
 STRESS PERIOD TIME 2.62800E+06  43800.      730.00      30.417     8.32763E-02
         TOTAL TIME 5.25600E+06  87600.      1460.0      60.833     0.16655    
1
1
                            STRESS PERIOD NO.    3, LENGTH =   2628000.    
                            -----------------------------------------------

                              NUMBER OF TIME STEPS =    15

                               MULTIPLIER FOR DELT =     1.100

                            INITIAL TIME STEP SIZE =   82713.07    

 WELL NO.  LAYER   ROW   COL   STRESS RATE         
 --------------------------------------------------
      1      1      6      4      -4.000    
      2      1      6      5      -4.000    
      3      1      7      4      -4.000    
      4      1      7      5      -4.000    
      5      1      8      4      -4.000    
      6      1      8      5      -4.000    
      7      1      9      4      -4.000    
      8      1      9      5      -4.000    
      9      1     10      4      -4.000    
     10      1     10      5      -4.000    

     10 WELLS

 REUSING NON-PARAMETER GHB CELLS FROM LAST STRESS PERIOD

      2 GHB CELLS

 REUSING STREAM SEGMENT DATA FROM LAST STRESS PERIOD



            AREAL INFILTRATION RATE
 READING ON UNIT   19 WITH FORMAT: (10F4.0)            

            1           2           3           4           5           6           7           8           9          10
 ........................................................................................................................
   1   1.0000E-08  2.0000E-08   0.000       0.000       0.000       0.000       0.000       0.000       0.000       0.000    
   2   2.0000E-08  1.0000E-08  2.0000E-08   0.000       0.000      8.0000E-08  8.0000E-08  5.0000E-08   0.000       0.000    
   3    0.000      5.0000E-08  1.0000E-08  1.0000E-08  8.0000E-08  8.0000E-08  5.0000E-08  5.0000E-08   0.000       0.000    
   4   8.0000E-08  5.0000E-08  1.0000E-08  1.0000E-08  1.0000E-08  1.0000E-08  1.0000E-08  1.0000E-08  2.0000E-08   0.000    
   5   8.0000E-08  5.0000E-08  1.0000E-08  1.0000E-08  1.0000E-08  1.0000E-08  1.0000E-08  1.0000E-08  1.0000E-08  1.0000E-08
   6   8.0000E-08  5.0000E-08  5.0000E-08  2.0000E-08  2.0000E-08  1.0000E-08  1.0000E-08  1.0000E-08  1.0000E-08  5.0000E-08
   7   8.0000E-08  5.0000E-08  5.0000E-08  2.0000E-08  2.0000E-08  1.0000E-08  1.0000E-08  2.0000E-08  2.0000E-08   0.000    
   8    0.000      5.0000E-08  5.0000E-08  2.0000E-08  2.0000E-08  1.0000E-08  1.0000E-08  2.0000E-08  5.0000E-08   0.000    
   9    0.000      5.0000E-08  5.0000E-08  2.0000E-08  2.0000E-08  1.0000E-08  1.0000E-08  2.0000E-08  5.0000E-08   0.000    
  10    0.000      5.0000E-08  5.0000E-08  2.0000E-08  2.0000E-08  1.0000E-08  1.0000E-08  2.0000E-08  5.0000E-08  8.0000E-08
  11    0.000      1.0000E-08  1.0000E-08  1.0000E-08  1.0000E-08  1.0000E-08  1.0000E-08  2.0000E-08  5.0000E-08   0.000    
  12   1.0000E-08  1.0000E-08  1.0000E-08  1.0000E-08  1.0000E-08  1.0000E-08  1.0000E-08  1.0000E-08  2.0000E-08   0.000    
  13   1.0000E-08  1.0000E-08  2.0000E-08  2.0000E-08  2.0000E-08  2.0000E-08  2.0000E-08  1.0000E-08  1.0000E-08   0.000    
  14    0.000      2.0000E-08  5.0000E-08  5.0000E-08  5.0000E-08  5.0000E-08  5.0000E-08  2.0000E-08  1.0000E-08   0.000    
  15    0.000       0.000      8.0000E-08  8.0000E-08  8.0000E-08  8.0000E-08   0.000       0.000       0.000       0.000    

USING ET RATE FROM PREVIOUS STRESS PERIOD. CURRENT PERIOD IS:       3

 USING ET EXTINCTION DEPTH FROM PREVIOUS STRESS PERIOD. CURRENT PERIOD IS:       3

 USING EXTINCTION WATER CONTENT FROM PREVIOUS STRESS PERIOD. CURRENT PERIOD IS:       3
 
 SOLVING FOR HEAD 
                                                   Max.-Head-Change                         Max.-Flux-Residual
  Residual-Control   Outer-Iter.   Inner-Iter.     Column Row Layer    Maximum-Head-Change  Column Row Layer    Maximum-Flux-Residual          L2-NORM 
          0                 1           2             4    8     1      -0.4820513520E-01       4    8    1        -0.2665826870E+01      0.7394162183E+01
          0                 2           2             4    8     1       0.4776664156E-02       4    8    1         0.2665808677E+00      0.7394130522E+00
          0                 3           2             4    8     1      -0.4259955005E-03       4    8    1        -0.2399229895E-01      0.6654721406E-01
          0                 4           1             4    8     1       0.3381261575E-04       4    8    1         0.1921783507E-02      0.5330432961E-02

    ------------------------------------------------
       NWT REQUIRED            4 OUTER ITERATIONS 
       AND A TOTAL OF          7 INNER ITERATIONS.
    ------------------------------------------------

 OUTPUT CONTROL FOR STRESS PERIOD    3   TIME STEP    1
    PRINT BUDGET
    SAVE BUDGET

            WELLS   PERIOD    3   STEP   1
 WELL      1   LAYER   1   ROW     6   COL     4   RATE    -4.00000    
 WELL      2   LAYER   1   ROW     6   COL     5   RATE    -4.00000    
 WELL      3   LAYER   1   ROW     7   COL     4   RATE    -4.00000    
 WELL      4   LAYER   1   ROW     7   COL     5   RATE    -4.00000    
 WELL      5   LAYER   1   ROW     8   COL     4   RATE    -4.00000    
 WELL      6   LAYER   1   ROW     8   COL     5   RATE    -4.00000    
 WELL      7   LAYER   1   ROW     9   COL     4   RATE    -4.00000    
 WELL      8   LAYER   1   ROW     9   COL     5   RATE    -4.00000    
 WELL      9   LAYER   1   ROW    10   COL     4   RATE    -4.00000    
 WELL     10   LAYER   1   ROW    10   COL     5   RATE    -4.00000    

  HEAD DEP BOUNDS   PERIOD    3   STEP   1
 BOUNDARY      1   LAYER   1   ROW    13   COL     1   RATE    0.758291    
 BOUNDARY      2   LAYER   1   ROW    14   COL     9   RATE     2.36831    



 STREAM LISTING     PERIOD      3   STEP        1

 LAYER ROW COL. STREAM  RCH.  FLOW INTO     FLOW TO   FLOW OUT OF   OVRLND.     DIRECT     STREAM       STREAM     STREAM     STREAM   STREAMBED  STREAMBED
                SEG.NO.  NO.  STRM. RCH.    AQUIFER    STRM. RCH.    RUNOFF     PRECIP       ET          HEAD       DEPTH      WIDTH   CONDCTNC.   GRADIENT

   1    1    1     1     1    2.5000E+01  2.4674E-09   2.5693E+01  6.931E-01  0.000E+00  0.000E+00  1.09423E+03  1.183E+00  1.311E+01  5.898E-10  1.394E+00
   1    2    2     1     2    2.5693E+01  3.8959E-09   2.6771E+01  1.078E+00  0.000E+00  0.000E+00  1.08925E+03  1.195E+00  1.327E+01  9.286E-10  1.398E+00
   1    3    3     1     3    2.6771E+01  3.4006E-09   2.7695E+01  9.241E-01  0.000E+00  0.000E+00  1.08363E+03  1.210E+00  1.346E+01  8.077E-10  1.403E+00
   1    3    4     1     4    2.7695E+01  3.1944E-10   2.8550E+01  8.548E-01  0.000E+00  0.000E+00  1.07863E+03  1.223E+00  1.363E+01  7.565E-11  1.408E+00
   1    4    5     2     1    1.8550E+01  3.1319E-01   1.8899E+01  6.623E-01  0.000E+00  0.000E+00  1.07295E+03  1.015E+00  1.200E+01  7.800E-02  1.338E+00
   1    5    6     2     2    1.8899E+01  2.4152E-01   1.9167E+01  5.094E-01  0.000E+00  0.000E+00  1.06753E+03  1.025E+00  1.200E+01  6.000E-02  1.342E+00
   1    6    6     2     3    1.9167E+01  2.4204E-01   1.9434E+01  5.094E-01  0.000E+00  0.000E+00  1.06283E+03  1.034E+00  1.200E+01  6.000E-02  1.345E+00
   1    7    6     2     4    1.9434E+01  2.4255E-01   1.9701E+01  5.094E-01  0.000E+00  0.000E+00  1.05812E+03  1.042E+00  1.200E+01  6.000E-02  1.347E+00
   1    8    6     2     5    1.9701E+01  2.4306E-01   1.9968E+01  5.094E-01  0.000E+00  0.000E+00  1.05341E+03  1.051E+00  1.200E+01  6.000E-02  1.350E+00
   1    3    5     3     1    1.0000E+01  2.8252E-01   1.1990E+01  2.273E+00  0.000E+00  0.000E+00  1.07555E+03  1.909E+00  9.636E+00  7.227E-02  1.955E+00
   1    3    6     3     2    1.1990E+01  2.4905E-01   1.4014E+01  2.273E+00  0.000E+00  0.000E+00  1.07264E+03  1.727E+00  8.909E+00  6.682E-02  1.864E+00
   1    3    7     3     3    1.4014E+01  1.9718E-01   1.5862E+01  2.045E+00  0.000E+00  0.000E+00  1.06987E+03  1.555E+00  8.218E+00  5.547E-02  1.777E+00
   1    4    8     3     4    1.5862E+01  2.2567E-01   1.8364E+01  2.727E+00  0.000E+00  0.000E+00  1.06682E+03  1.364E+00  7.455E+00  6.709E-02  1.682E+00
   1    5    8     3     5    1.8364E+01  1.5790E-01   2.0479E+01  2.273E+00  0.000E+00  0.000E+00  1.06362E+03  1.164E+00  6.655E+00  4.991E-02  1.582E+00
   1    6    8     3     6    2.0479E+01  5.5980E-02   2.1332E+01  9.091E-01  0.000E+00  0.000E+00  1.06158E+03  1.036E+00  6.145E+00  1.844E-02  1.518E+00
   1    5   10     4     1    1.0000E+01  9.1150E-02   1.0392E+01  4.830E-01  0.000E+00  0.000E+00  1.07837E+03  6.460E-01  1.000E+01  2.500E-02  1.215E+00
   1    5    9     4     2    1.0392E+01  1.8340E-01   1.1174E+01  9.659E-01  0.000E+00  0.000E+00  1.07158E+03  6.681E-01  1.000E+01  5.000E-02  1.223E+00
   1    6    8     4     3    1.1174E+01  1.2924E-01   1.1721E+01  6.761E-01  0.000E+00  0.000E+00  1.06387E+03  6.925E-01  1.000E+01  3.500E-02  1.231E+00
   1    6    8     5     1    3.3053E+01  5.0019E-09   3.3880E+01  8.267E-01  0.000E+00  0.000E+00  1.05902E+03  1.022E+00  3.109E+01  1.244E-09  1.341E+00
   1    7    7     5     2    3.3880E+01  6.3637E-09   3.4913E+01  1.033E+00  0.000E+00  0.000E+00  1.05453E+03  1.032E+00  3.157E+01  1.578E-09  1.344E+00
   1    8    7     5     3    3.4913E+01  4.5416E-09   3.5636E+01  7.233E-01  0.000E+00  0.000E+00  1.05029E+03  1.042E+00  3.211E+01  1.124E-09  1.347E+00
   1    8    6     5     4    3.5636E+01  3.2875E-09   3.6153E+01  5.167E-01  0.000E+00  0.000E+00  1.04730E+03  1.049E+00  3.248E+01  8.120E-10  1.350E+00
   1    9    6     6     1    5.6121E+01  2.9986E-01   5.7457E+01  1.636E+00  0.000E+00  0.000E+00  1.04472E+03  1.998E+00  1.200E+01  6.000E-02  1.666E+00
   1   10    7     6     2    5.7457E+01  3.0155E-01   5.8792E+01  1.636E+00  0.000E+00  0.000E+00  1.04021E+03  2.026E+00  1.200E+01  6.000E-02  1.675E+00
   1   11    7     6     3    5.8792E+01  3.0321E-01   6.0125E+01  1.636E+00  0.000E+00  0.000E+00  1.03569E+03  2.054E+00  1.200E+01  6.000E-02  1.685E+00
   1   12    7     6     4    6.0125E+01  3.0486E-01   6.1457E+01  1.636E+00  0.000E+00  0.000E+00  1.03117E+03  2.081E+00  1.200E+01  6.000E-02  1.694E+00
   1   13    7     6     5    6.1457E+01  1.2240E-01   6.1989E+01  6.545E-01  0.000E+00  0.000E+00  1.02801E+03  2.100E+00  1.200E+01  2.400E-02  1.700E+00
   1   14    9     7     1    1.5000E+02  2.9573E-08   1.5154E+02  1.540E+00  0.000E+00  0.000E+00  1.03987E+03  2.287E+00  5.529E+01  5.593E-09  1.762E+00
   1   13    8     7     2    1.5154E+02  3.2600E-14   1.5323E+02  1.694E+00  0.000E+00  0.000E+00  1.03480E+03  2.295E+00  5.533E+01  6.156E-15  1.765E+00
   1   13    7     7     3    1.5323E+02  2.9712E-08   1.5478E+02  1.540E+00  0.000E+00  0.000E+00  1.02972E+03  2.305E+00  5.537E+01  5.601E-09  1.768E+00
   1   13    6     8     1    2.1676E+02  0.0000E+00   2.2496E+02  8.196E+00  0.000E+00  0.000E+00  1.02513E+03  3.257E+00  4.722E+01  0.000E+00  2.086E+00
   1   13    5     8     2    2.2496E+02  3.0623E-13   2.3316E+02  8.196E+00  0.000E+00  0.000E+00  1.01892E+03  3.293E+00  4.775E+01  4.866E-14  2.098E+00
   1   13    4     8     3    2.3316E+02  3.1246E-16   2.4135E+02  8.196E+00  0.000E+00  0.000E+00  1.01271E+03  3.337E+00  4.839E+01  4.931E-17  2.112E+00
   1   13    3     8     4    2.4135E+02  3.1862E-15   2.4955E+02  8.196E+00  0.000E+00  0.000E+00  1.00650E+03  3.380E+00  4.901E+01  4.994E-16  2.127E+00
   1   13    2     8     5    2.4955E+02  3.2471E-18   2.5775E+02  8.196E+00  0.000E+00  0.000E+00  1.00030E+03  3.422E+00  4.962E+01  5.056E-19  2.141E+00
   1   13    1     8     6    2.5775E+02  1.9844E-29   2.6266E+02  4.918E+00  0.000E+00  0.000E+00  9.95338E+02  3.463E+00  5.022E+01  3.070E-30  2.154E+00



 UBDSV3 SAVING "     NETRECHARGE" ON UNIT 100 AT TIME STEP  1, STRESS PERIOD   3
 UBDSV3 SAVING "    NETDISCHARGE" ON UNIT 101 AT TIME STEP  1, STRESS PERIOD   3
 UBDSV3 SAVING "           GW ET" ON UNIT  61 AT TIME STEP  1, STRESS PERIOD   3
 UBDSV3 SAVING "    UZF RECHARGE" ON UNIT  61 AT TIME STEP  1, STRESS PERIOD   3
 UBDSV3 SAVING " SURFACE LEAKAGE" ON UNIT  61 AT TIME STEP  1, STRESS PERIOD   3
 UBDSV3 SAVING "       HORT+DUNN" ON UNIT  61 AT TIME STEP  1, STRESS PERIOD   3
 UBDSV3 SAVING "  STORAGE CHANGE" ON UNIT  61 AT TIME STEP  1, STRESS PERIOD   3


UNSATURATED ZONE PACKAGE VOLUMETRIC BUDGET FOR  TIME STEP     1 STRESS PERIOD    3
  ------------------------------------------------------------------------------



     CUMULATIVE VOLUMES      L**3       RATES FOR THIS TIME STEP      L**3/T
     ------------------                 ------------------------

           IN:                                      IN:
           ---                                      ---
        INFILTRATION =    15482267.0713          INFILTRATION =           2.9000

          OUT:                                     OUT:
          ----                                     ----
              UZF ET =      694841.7640                UZF ET =           0.4722
        UZF RECHARGE =     7621246.6355          UZF RECHARGE =       0.0000E+00

            IN - OUT =     7166178.6718              IN - OUT =           2.4278

          STORAGE:                                 STORAGE:
          --------                                 --------
      STORAGE CHANGE =     7166178.6697        STORAGE CHANGE =           2.4278

 PERCENT DISCREPANCY IS DIFFERENCE BETWEEN IN-OUT MINUS CHANGE IN STORAGE
 DIVIDED BY THE AVERAGE OF IN AND OUT TIMES 100

 PERCENT DISCREPANCY =           0.00     PERCENT DISCREPANCY =           0.00






1
  VOLUMETRIC BUDGET FOR ENTIRE MODEL AT END OF TIME STEP    1, STRESS PERIOD   3
  ------------------------------------------------------------------------------

     CUMULATIVE VOLUMES      L**3       RATES FOR THIS TIME STEP      L**3/T
     ------------------                 ------------------------

           IN:                                      IN:
           ---                                      ---
             STORAGE =    89184008.0000               STORAGE =          32.6930
       CONSTANT HEAD =           0.0000         CONSTANT HEAD =           0.0000
               WELLS =           0.0000                 WELLS =           0.0000
     HEAD DEP BOUNDS =    16688009.0000       HEAD DEP BOUNDS =           3.1266
      STREAM LEAKAGE =    21214170.0000        STREAM LEAKAGE =           4.1863
        UZF RECHARGE =     7621252.0000          UZF RECHARGE =           0.0000
               GW ET =           0.0000                 GW ET =           0.0000
     SURFACE LEAKAGE =           0.0000       SURFACE LEAKAGE =           0.0000

            TOTAL IN =   134707440.0000              TOTAL IN =          40.0060

          OUT:                                     OUT:
          ----                                     ----
             STORAGE =        1483.9338               STORAGE =       7.6054E-03
       CONSTANT HEAD =           0.0000         CONSTANT HEAD =           0.0000
               WELLS =   134708512.0000                 WELLS =          40.0000
     HEAD DEP BOUNDS =           0.0000       HEAD DEP BOUNDS =           0.0000
      STREAM LEAKAGE =           0.0000        STREAM LEAKAGE =           0.0000
        UZF RECHARGE =           0.0000          UZF RECHARGE =           0.0000
               GW ET =           0.0000                 GW ET =           0.0000
     SURFACE LEAKAGE =           0.0000       SURFACE LEAKAGE =           0.0000

           TOTAL OUT =   134710000.0000             TOTAL OUT =          40.0076

            IN - OUT =       -2560.0000              IN - OUT =      -1.6556E-03

 PERCENT DISCREPANCY =          -0.00     PERCENT DISCREPANCY =          -0.00






         TIME SUMMARY AT END OF TIME STEP    1 IN STRESS PERIOD    3
                    SECONDS     MINUTES      HOURS       DAYS        YEARS
                    -----------------------------------------------------------
   TIME STEP LENGTH  82713.      1378.6      22.976     0.95733     2.62102E-03
 STRESS PERIOD TIME  82713.      1378.6      22.976     0.95733     2.62102E-03
         TOTAL TIME 5.33871E+06  88979.      1483.0      61.791     0.16917    
1
 
 SOLVING FOR HEAD 
                                                   Max.-Head-Change                         Max.-Flux-Residual
  Residual-Control   Outer-Iter.   Inner-Iter.     Column Row Layer    Maximum-Head-Change  Column Row Layer    Maximum-Flux-Residual          L2-NORM 
          0                 1           2             4    8     1      -0.5274590768E-01       4    8    1        -0.2653126398E+01      0.7358557482E+01
          0                 2           2             4    8     1       0.5226605827E-02       4    8    1         0.2653105100E+00      0.7358521329E+00
          0                 3           2             4    8     1      -0.4661225349E-03       4    8    1        -0.2387796978E-01      0.6622673568E-01
          0                 4           1             4    8     1       0.3699762552E-04       4    8    1         0.1912625697E-02      0.5304762593E-02

    ------------------------------------------------
       NWT REQUIRED            4 OUTER ITERATIONS 
       AND A TOTAL OF          7 INNER ITERATIONS.
    ------------------------------------------------

 NO OUTPUT CONTROL FOR STRESS PERIOD    3   TIME STEP    2
 
 SOLVING FOR HEAD 
                                                   Max.-Head-Change                         Max.-Flux-Residual
  Residual-Control   Outer-Iter.   Inner-Iter.     Column Row Layer    Maximum-Head-Change  Column Row Layer    Maximum-Flux-Residual          L2-NORM 
          0                 1           2             4    8     1      -0.5768152959E-01       4    8    1        -0.2639130823E+01      0.7312531669E+01
          0                 2           2             4    8     1       0.5715671212E-02       4    8    1         0.2639105829E+00      0.7312490354E+00
          0                 3           2             4    8     1      -0.5097387459E-03       4    8    1        -0.2375197995E-01      0.6581246190E-01
          0                 4           1             4    8     1       0.4045958160E-04       4    8    1         0.1902533869E-02      0.5271579211E-02

    ------------------------------------------------
       NWT REQUIRED            4 OUTER ITERATIONS 
       AND A TOTAL OF          7 INNER ITERATIONS.
    ------------------------------------------------

 NO OUTPUT CONTROL FOR STRESS PERIOD    3   TIME STEP    3
 
 SOLVING FOR HEAD 
                                                   Max.-Head-Change                         Max.-Flux-Residual
  Residual-Control   Outer-Iter.   Inner-Iter.     Column Row Layer    Maximum-Head-Change  Column Row Layer    Maximum-Flux-Residual          L2-NORM 
          0                 1           2             4    8     1      -0.6303905541E-01       4    8    1        -0.2623709665E+01      0.7263175830E+01
          0                 2           2             4    8     1       0.6246540471E-02       4    8    1         0.2623680269E+00      0.7263128571E+00
          0                 3           2             4    8     1      -0.5570831644E-03       4    8    1        -0.2361315422E-01      0.6536821166E-01
          0                 4           1             4    8     1       0.4421745813E-04       4    8    1         0.1891413907E-02      0.5235994728E-02

    ------------------------------------------------
       NWT REQUIRED            4 OUTER ITERATIONS 
       AND A TOTAL OF          7 INNER ITERATIONS.
    ------------------------------------------------

 NO OUTPUT CONTROL FOR STRESS PERIOD    3   TIME STEP    4
 
 SOLVING FOR HEAD 
                                                   Max.-Head-Change                         Max.-Flux-Residual
  Residual-Control   Outer-Iter.   Inner-Iter.     Column Row Layer    Maximum-Head-Change  Column Row Layer    Maximum-Flux-Residual          L2-NORM 
          0                 1           2             4    8     1      -0.6884596243E-01       4    8    1        -0.2606730404E+01      0.7210355956E+01
          0                 2           2             4    8     1       0.6821935447E-02       4    8    1         0.2606695765E+00      0.7210301860E+00
          0                 3           2             4    8     1      -0.6083985394E-03       4    8    1        -0.2346029881E-01      0.6489277792E-01
          0                 4           1             4    8     1       0.4829052136E-04       4    8    1         0.1879170153E-02      0.5197912408E-02

    ------------------------------------------------
       NWT REQUIRED            4 OUTER ITERATIONS 
       AND A TOTAL OF          7 INNER ITERATIONS.
    ------------------------------------------------

 OUTPUT CONTROL FOR STRESS PERIOD    3   TIME STEP    5
    PRINT BUDGET
    SAVE BUDGET

            WELLS   PERIOD    3   STEP   5
 WELL      1   LAYER   1   ROW     6   COL     4   RATE    -4.00000    
 WELL      2   LAYER   1   ROW     6   COL     5   RATE    -4.00000    
 WELL      3   LAYER   1   ROW     7   COL     4   RATE    -4.00000    
 WELL      4   LAYER   1   ROW     7   COL     5   RATE    -4.00000    
 WELL      5   LAYER   1   ROW     8   COL     4   RATE    -4.00000    
 WELL      6   LAYER   1   ROW     8   COL     5   RATE    -4.00000    
 WELL      7   LAYER   1   ROW     9   COL     4   RATE    -4.00000    
 WELL      8   LAYER   1   ROW     9   COL     5   RATE    -4.00000    
 WELL      9   LAYER   1   ROW    10   COL     4   RATE    -4.00000    
 WELL     10   LAYER   1   ROW    10   COL     5   RATE    -4.00000    

  HEAD DEP BOUNDS   PERIOD    3   STEP   5
 BOUNDARY      1   LAYER   1   ROW    13   COL     1   RATE    0.758371    
 BOUNDARY      2   LAYER   1   ROW    14   COL     9   RATE     2.36839    



 STREAM LISTING     PERIOD      3   STEP        5

 LAYER ROW COL. STREAM  RCH.  FLOW INTO     FLOW TO   FLOW OUT OF   OVRLND.     DIRECT     STREAM       STREAM     STREAM     STREAM   STREAMBED  STREAMBED
                SEG.NO.  NO.  STRM. RCH.    AQUIFER    STRM. RCH.    RUNOFF     PRECIP       ET          HEAD       DEPTH      WIDTH   CONDCTNC.   GRADIENT

   1    1    1     1     1    2.5000E+01  2.4515E-09   2.5000E+01  0.000E+00  0.000E+00  0.000E+00  1.09423E+03  1.178E+00  1.304E+01  5.867E-10  1.393E+00
   1    2    2     1     2    2.5000E+01  3.8085E-09   2.5000E+01  0.000E+00  0.000E+00  0.000E+00  1.08924E+03  1.177E+00  1.302E+01  9.117E-10  1.392E+00
   1    3    3     1     3    2.5000E+01  3.2661E-09   2.5000E+01  0.000E+00  0.000E+00  0.000E+00  1.08360E+03  1.178E+00  1.303E+01  7.818E-10  1.393E+00
   1    3    4     1     4    2.5000E+01  3.0219E-09   2.5000E+01  0.000E+00  0.000E+00  0.000E+00  1.07859E+03  1.178E+00  1.303E+01  7.233E-10  1.393E+00
   1    4    5     2     1    1.5000E+01  3.0290E-01   1.4697E+01  0.000E+00  0.000E+00  0.000E+00  1.07282E+03  8.834E-01  1.200E+01  7.800E-02  1.294E+00
   1    5    6     2     2    1.4697E+01  2.3243E-01   1.4465E+01  0.000E+00  0.000E+00  0.000E+00  1.06738E+03  8.738E-01  1.200E+01  6.000E-02  1.291E+00
   1    6    6     2     3    1.4465E+01  2.3193E-01   1.4233E+01  0.000E+00  0.000E+00  0.000E+00  1.06266E+03  8.654E-01  1.200E+01  6.000E-02  1.288E+00
   1    7    6     2     4    1.4233E+01  2.3142E-01   1.4001E+01  0.000E+00  0.000E+00  0.000E+00  1.05793E+03  8.570E-01  1.200E+01  6.000E-02  1.286E+00
   1    8    6     2     5    1.4001E+01  2.3091E-01   1.3770E+01  0.000E+00  0.000E+00  0.000E+00  1.05321E+03  8.486E-01  1.200E+01  6.000E-02  1.283E+00
   1    3    5     3     1    1.0000E+01  2.8252E-01   9.7175E+00  0.000E+00  0.000E+00  0.000E+00  1.07555E+03  1.909E+00  9.636E+00  7.227E-02  1.955E+00
   1    3    6     3     2    9.7175E+00  2.4905E-01   9.4684E+00  0.000E+00  0.000E+00  0.000E+00  1.07264E+03  1.727E+00  8.909E+00  6.682E-02  1.864E+00
   1    3    7     3     3    9.4684E+00  1.9718E-01   9.2712E+00  0.000E+00  0.000E+00  0.000E+00  1.06987E+03  1.555E+00  8.218E+00  5.547E-02  1.777E+00
   1    4    8     3     4    9.2712E+00  2.2567E-01   9.0456E+00  0.000E+00  0.000E+00  0.000E+00  1.06682E+03  1.364E+00  7.455E+00  6.709E-02  1.682E+00
   1    5    8     3     5    9.0456E+00  1.5790E-01   8.8877E+00  0.000E+00  0.000E+00  0.000E+00  1.06362E+03  1.164E+00  6.655E+00  4.991E-02  1.582E+00
   1    6    8     3     6    8.8877E+00  5.5980E-02   8.8317E+00  0.000E+00  0.000E+00  0.000E+00  1.06158E+03  1.036E+00  6.145E+00  1.844E-02  1.518E+00
   1    5   10     4     1    1.0000E+01  9.0919E-02   9.9091E+00  0.000E+00  0.000E+00  0.000E+00  1.07836E+03  6.368E-01  1.000E+01  2.500E-02  1.212E+00
   1    5    9     4     2    9.9091E+00  1.8158E-01   9.7275E+00  0.000E+00  0.000E+00  0.000E+00  1.07154E+03  6.315E-01  1.000E+01  5.000E-02  1.211E+00
   1    6    8     4     3    9.7275E+00  1.2689E-01   9.6006E+00  0.000E+00  0.000E+00  0.000E+00  1.06381E+03  6.256E-01  1.000E+01  3.500E-02  1.209E+00
   1    6    8     5     1    1.8432E+01  3.3262E-09   1.8432E+01  0.000E+00  0.000E+00  0.000E+00  1.05883E+03  8.293E-01  2.172E+01  8.686E-10  1.276E+00
   1    7    7     5     2    1.8432E+01  4.1514E-09   1.8432E+01  0.000E+00  0.000E+00  0.000E+00  1.05433E+03  8.286E-01  2.169E+01  1.084E-09  1.276E+00
   1    8    7     5     3    1.8432E+01  2.9126E-09   1.8432E+01  0.000E+00  0.000E+00  0.000E+00  1.05008E+03  8.296E-01  2.173E+01  7.606E-10  1.277E+00
   1    8    6     5     4    1.8432E+01  2.0836E-09   1.8432E+01  0.000E+00  0.000E+00  0.000E+00  1.04708E+03  8.303E-01  2.176E+01  5.440E-10  1.277E+00
   1    9    6     6     1    3.2203E+01  2.6507E-01   3.1938E+01  0.000E+00  0.000E+00  0.000E+00  1.04415E+03  1.418E+00  1.200E+01  6.000E-02  1.473E+00
   1   10    7     6     2    3.1938E+01  2.6465E-01   3.1673E+01  0.000E+00  0.000E+00  0.000E+00  1.03959E+03  1.411E+00  1.200E+01  6.000E-02  1.470E+00
   1   11    7     6     3    3.1673E+01  2.6423E-01   3.1409E+01  0.000E+00  0.000E+00  0.000E+00  1.03504E+03  1.404E+00  1.200E+01  6.000E-02  1.468E+00
   1   12    7     6     4    3.1409E+01  2.6380E-01   3.1145E+01  0.000E+00  0.000E+00  0.000E+00  1.03049E+03  1.397E+00  1.200E+01  6.000E-02  1.466E+00
   1   13    7     6     5    3.1145E+01  1.0540E-01   3.1040E+01  0.000E+00  0.000E+00  0.000E+00  1.02730E+03  1.392E+00  1.200E+01  2.400E-02  1.464E+00
   1   14    9     7     1    1.5000E+02  2.9539E-14   1.5000E+02  0.000E+00  0.000E+00  0.000E+00  1.03986E+03  2.283E+00  5.528E+01  5.591E-15  1.761E+00
   1   13    8     7     2    1.5000E+02  3.2486E-13   1.5000E+02  0.000E+00  0.000E+00  0.000E+00  1.03478E+03  2.283E+00  5.527E+01  6.150E-14  1.761E+00
   1   13    7     7     3    1.5000E+02  2.9539E-14   1.5000E+02  0.000E+00  0.000E+00  0.000E+00  1.02970E+03  2.283E+00  5.528E+01  5.591E-15  1.761E+00
   1   13    6     8     1    1.8104E+02  0.0000E+00   1.8104E+02  0.000E+00  0.000E+00  0.000E+00  1.02490E+03  3.023E+00  4.383E+01  0.000E+00  2.008E+00
   1   13    5     8     2    1.8104E+02  2.6787E-12   1.8104E+02  0.000E+00  0.000E+00  0.000E+00  1.01864E+03  3.014E+00  4.371E+01  4.454E-13  2.005E+00
   1   13    4     8     3    1.8104E+02  2.6787E-12   1.8104E+02  0.000E+00  0.000E+00  0.000E+00  1.01239E+03  3.014E+00  4.371E+01  4.454E-13  2.005E+00
   1   13    3     8     4    1.8104E+02  2.6787E-12   1.8104E+02  0.000E+00  0.000E+00  0.000E+00  1.00614E+03  3.014E+00  4.371E+01  4.454E-13  2.005E+00
   1   13    2     8     5    1.8104E+02  2.6787E-12   1.8104E+02  0.000E+00  0.000E+00  0.000E+00  9.99889E+02  3.014E+00  4.371E+01  4.454E-13  2.005E+00
   1   13    1     8     6    1.8104E+02  1.6099E-08   1.8104E+02  0.000E+00  0.000E+00  0.000E+00  9.94893E+02  3.018E+00  4.376E+01  2.675E-09  2.006E+00



 UBDSV3 SAVING "     NETRECHARGE" ON UNIT 100 AT TIME STEP  5, STRESS PERIOD   3
 UBDSV3 SAVING "    NETDISCHARGE" ON UNIT 101 AT TIME STEP  5, STRESS PERIOD   3
 UBDSV3 SAVING "           GW ET" ON UNIT  61 AT TIME STEP  5, STRESS PERIOD   3
 UBDSV3 SAVING "    UZF RECHARGE" ON UNIT  61 AT TIME STEP  5, STRESS PERIOD   3
 UBDSV3 SAVING " SURFACE LEAKAGE" ON UNIT  61 AT TIME STEP  5, STRESS PERIOD   3
 UBDSV3 SAVING "       HORT+DUNN" ON UNIT  61 AT TIME STEP  5, STRESS PERIOD   3
 UBDSV3 SAVING "  STORAGE CHANGE" ON UNIT  61 AT TIME STEP  5, STRESS PERIOD   3


UNSATURATED ZONE PACKAGE VOLUMETRIC BUDGET FOR  TIME STEP     5 STRESS PERIOD    3
  ------------------------------------------------------------------------------



     CUMULATIVE VOLUMES      L**3       RATES FOR THIS TIME STEP      L**3/T
     ------------------                 ------------------------

           IN:                                      IN:
           ---                                      ---
        INFILTRATION =    16706816.7383          INFILTRATION =           2.9000

          OUT:                                     OUT:
          ----                                     ----
              UZF ET =      910873.3505                UZF ET =           0.5349
        UZF RECHARGE =     7621246.6355          UZF RECHARGE =       0.0000E+00

            IN - OUT =     8174696.7523              IN - OUT =           2.3651

          STORAGE:                                 STORAGE:
          --------                                 --------
      STORAGE CHANGE =     8174696.7407        STORAGE CHANGE =           2.3651

 PERCENT DISCREPANCY IS DIFFERENCE BETWEEN IN-OUT MINUS CHANGE IN STORAGE
 DIVIDED BY THE AVERAGE OF IN AND OUT TIMES 100

 PERCENT DISCREPANCY =           0.00     PERCENT DISCREPANCY =           0.00






1
  VOLUMETRIC BUDGET FOR ENTIRE MODEL AT END OF TIME STEP    5, STRESS PERIOD   3
  ------------------------------------------------------------------------------

     CUMULATIVE VOLUMES      L**3       RATES FOR THIS TIME STEP      L**3/T
     ------------------                 ------------------------

           IN:                                      IN:
           ---                                      ---
             STORAGE =   103081040.0000               STORAGE =          32.9111
       CONSTANT HEAD =           0.0000         CONSTANT HEAD =           0.0000
               WELLS =           0.0000                 WELLS =           0.0000
     HEAD DEP BOUNDS =    18008286.0000       HEAD DEP BOUNDS =           3.1268
      STREAM LEAKAGE =    22886498.0000        STREAM LEAKAGE =           3.9604
        UZF RECHARGE =     7621252.0000          UZF RECHARGE =           0.0000
               GW ET =           0.0000                 GW ET =           0.0000
     SURFACE LEAKAGE =           0.0000       SURFACE LEAKAGE =           0.0000

            TOTAL IN =   151597072.0000              TOTAL IN =          39.9983

          OUT:                                     OUT:
          ----                                     ----
             STORAGE =        1483.9338               STORAGE =           0.0000
       CONSTANT HEAD =           0.0000         CONSTANT HEAD =           0.0000
               WELLS =   151598864.0000                 WELLS =          40.0000
     HEAD DEP BOUNDS =           0.0000       HEAD DEP BOUNDS =           0.0000
      STREAM LEAKAGE =           0.0000        STREAM LEAKAGE =           0.0000
        UZF RECHARGE =           0.0000          UZF RECHARGE =           0.0000
               GW ET =           0.0000                 GW ET =           0.0000
     SURFACE LEAKAGE =           0.0000       SURFACE LEAKAGE =           0.0000

           TOTAL OUT =   151600352.0000             TOTAL OUT =          40.0000

            IN - OUT =       -3280.0000              IN - OUT =      -1.6632E-03

 PERCENT DISCREPANCY =          -0.00     PERCENT DISCREPANCY =          -0.00






         TIME SUMMARY AT END OF TIME STEP    5 IN STRESS PERIOD    3
                    SECONDS     MINUTES      HOURS       DAYS        YEARS
                    -----------------------------------------------------------
   TIME STEP LENGTH 1.21100E+05  2018.3      33.639      1.4016     3.83743E-03
 STRESS PERIOD TIME 5.04972E+05  8416.2      140.27      5.8446     1.60016E-02
         TOTAL TIME 5.76097E+06  96016.      1600.3      66.678     0.18255    
1
 
 SOLVING FOR HEAD 
                                                   Max.-Head-Change                         Max.-Flux-Residual
  Residual-Control   Outer-Iter.   Inner-Iter.     Column Row Layer    Maximum-Head-Change  Column Row Layer    Maximum-Flux-Residual          L2-NORM 
          0                 1           2             4    8     1      -0.7512944516E-01       4    8    1        -0.2588045297E+01      0.7153937326E+01
          0                 2           2             4    8     1       0.7444549698E-02       4    8    1         0.2588004412E+00      0.7153875376E+00
          0                 3           2             4    8     1      -0.6639251010E-03       4    8    1        -0.2329208275E-01      0.6438494720E-01
          0                 4           1             4    8     1       0.5269783887E-04       4    8    1         0.1865695975E-02      0.5157235084E-02

    ------------------------------------------------
       NWT REQUIRED            4 OUTER ITERATIONS 
       AND A TOTAL OF          7 INNER ITERATIONS.
    ------------------------------------------------

 NO OUTPUT CONTROL FOR STRESS PERIOD    3   TIME STEP    6
 
 SOLVING FOR HEAD 
                                                   Max.-Head-Change                         Max.-Flux-Residual
  Residual-Control   Outer-Iter.   Inner-Iter.     Column Row Layer    Maximum-Head-Change  Column Row Layer    Maximum-Flux-Residual          L2-NORM 
          0                 1           2             4    8     1      -0.8191622514E-01       4    8    1        -0.2567503861E+01      0.7093817303E+01
          0                 2           2             4    8     1       0.8117029579E-02       4    8    1         0.2567455544E+00      0.7093746346E+00
          0                 3           2             4    8     1      -0.7238988732E-03       4    8    1        -0.2310715021E-01      0.6384379471E-01
          0                 4           1             4    8     1       0.5745814570E-04       4    8    1         0.1850882817E-02      0.5113888689E-02

    ------------------------------------------------
       NWT REQUIRED            4 OUTER ITERATIONS 
       AND A TOTAL OF          7 INNER ITERATIONS.
    ------------------------------------------------

 NO OUTPUT CONTROL FOR STRESS PERIOD    3   TIME STEP    7
 
 SOLVING FOR HEAD 
                                                   Max.-Head-Change                         Max.-Flux-Residual
  Residual-Control   Outer-Iter.   Inner-Iter.     Column Row Layer    Maximum-Head-Change  Column Row Layer    Maximum-Flux-Residual          L2-NORM 
          0                 1           2             4    8     1      -0.8923164105E-01       4    8    1        -0.2544943045E+01      0.7029883579E+01
          0                 2           2             4    8     1       0.8841883985E-02       4    8    1         0.2544885898E+00      0.7029802315E+00
          0                 3           2             4    8     1      -0.7885436252E-03       4    8    1        -0.2290403204E-01      0.6326830848E-01
          0                 4           1             4    8     1       0.6258920257E-04       4    8    1         0.1834612979E-02      0.5067792157E-02

    ------------------------------------------------
       NWT REQUIRED            4 OUTER ITERATIONS 
       AND A TOTAL OF          7 INNER ITERATIONS.
    ------------------------------------------------

 NO OUTPUT CONTROL FOR STRESS PERIOD    3   TIME STEP    8
 
 SOLVING FOR HEAD 
                                                   Max.-Head-Change                         Max.-Flux-Residual
  Residual-Control   Outer-Iter.   Inner-Iter.     Column Row Layer    Maximum-Head-Change  Column Row Layer    Maximum-Flux-Residual          L2-NORM 
          0                 1           2             4    8     1      -0.9709919208E-01       4    8    1        -0.2520196085E+01      0.6962063784E+01
          0                 2           2             4    8     1       0.9621439014E-02       4    8    1         0.2520128472E+00      0.6961970761E+00
          0                 3           2             4    8     1      -0.8580668287E-03       4    8    1        -0.2268122544E-01      0.6265783596E-01
          0                 4           1             4    8     1       0.6810747703E-04       4    8    1         0.1816766096E-02      0.5018893217E-02

    ------------------------------------------------
       NWT REQUIRED            4 OUTER ITERATIONS 
       AND A TOTAL OF          7 INNER ITERATIONS.
    ------------------------------------------------

 NO OUTPUT CONTROL FOR STRESS PERIOD    3   TIME STEP    9
 
 SOLVING FOR HEAD 
                                                   Max.-Head-Change                         Max.-Flux-Residual
  Residual-Control   Outer-Iter.   Inner-Iter.     Column Row Layer    Maximum-Head-Change  Column Row Layer    Maximum-Flux-Residual          L2-NORM 
          0                 1           2             4    8     1      -0.1055396422E+00       4    8    1        -0.2493091964E+01      0.6890298632E+01
          0                 2           2             4    8     1       0.1045774909E-01       4    8    1         0.2493011982E+00      0.6890192240E+00
          0                 3           2             4    8     1      -0.9326517329E-03       4    8    1        -0.2243718916E-01      0.6201184232E-01
          0                 4           1             4    8     1       0.7402751286E-04       4    8    1         0.1797218684E-02      0.4967149001E-02

    ------------------------------------------------
       NWT REQUIRED            4 OUTER ITERATIONS 
       AND A TOTAL OF          7 INNER ITERATIONS.
    ------------------------------------------------

 OUTPUT CONTROL FOR STRESS PERIOD    3   TIME STEP   10
    PRINT BUDGET
    SAVE BUDGET

            WELLS   PERIOD    3   STEP  10
 WELL      1   LAYER   1   ROW     6   COL     4   RATE    -4.00000    
 WELL      2   LAYER   1   ROW     6   COL     5   RATE    -4.00000    
 WELL      3   LAYER   1   ROW     7   COL     4   RATE    -4.00000    
 WELL      4   LAYER   1   ROW     7   COL     5   RATE    -4.00000    
 WELL      5   LAYER   1   ROW     8   COL     4   RATE    -4.00000    
 WELL      6   LAYER   1   ROW     8   COL     5   RATE    -4.00000    
 WELL      7   LAYER   1   ROW     9   COL     4   RATE    -4.00000    
 WELL      8   LAYER   1   ROW     9   COL     5   RATE    -4.00000    
 WELL      9   LAYER   1   ROW    10   COL     4   RATE    -4.00000    
 WELL     10   LAYER   1   ROW    10   COL     5   RATE    -4.00000    

  HEAD DEP BOUNDS   PERIOD    3   STEP  10
 BOUNDARY      1   LAYER   1   ROW    13   COL     1   RATE    0.758526    
 BOUNDARY      2   LAYER   1   ROW    14   COL     9   RATE     2.36855    



 STREAM LISTING     PERIOD      3   STEP       10

 LAYER ROW COL. STREAM  RCH.  FLOW INTO     FLOW TO   FLOW OUT OF   OVRLND.     DIRECT     STREAM       STREAM     STREAM     STREAM   STREAMBED  STREAMBED
                SEG.NO.  NO.  STRM. RCH.    AQUIFER    STRM. RCH.    RUNOFF     PRECIP       ET          HEAD       DEPTH      WIDTH   CONDCTNC.   GRADIENT

   1    1    1     1     1    2.5000E+01  2.4515E-09   2.5000E+01  0.000E+00  0.000E+00  0.000E+00  1.09423E+03  1.178E+00  1.304E+01  5.867E-10  1.393E+00
   1    2    2     1     2    2.5000E+01  3.8085E-09   2.5000E+01  0.000E+00  0.000E+00  0.000E+00  1.08924E+03  1.177E+00  1.302E+01  9.117E-10  1.392E+00
   1    3    3     1     3    2.5000E+01  3.2661E-09   2.5000E+01  0.000E+00  0.000E+00  0.000E+00  1.08360E+03  1.178E+00  1.303E+01  7.818E-10  1.393E+00
   1    3    4     1     4    2.5000E+01  3.0219E-09   2.5000E+01  0.000E+00  0.000E+00  0.000E+00  1.07859E+03  1.178E+00  1.303E+01  7.233E-10  1.393E+00
   1    4    5     2     1    1.5000E+01  3.0290E-01   1.4697E+01  0.000E+00  0.000E+00  0.000E+00  1.07282E+03  8.834E-01  1.200E+01  7.800E-02  1.294E+00
   1    5    6     2     2    1.4697E+01  2.3243E-01   1.4465E+01  0.000E+00  0.000E+00  0.000E+00  1.06738E+03  8.738E-01  1.200E+01  6.000E-02  1.291E+00
   1    6    6     2     3    1.4465E+01  2.3193E-01   1.4233E+01  0.000E+00  0.000E+00  0.000E+00  1.06266E+03  8.654E-01  1.200E+01  6.000E-02  1.288E+00
   1    7    6     2     4    1.4233E+01  2.3142E-01   1.4001E+01  0.000E+00  0.000E+00  0.000E+00  1.05793E+03  8.570E-01  1.200E+01  6.000E-02  1.286E+00
   1    8    6     2     5    1.4001E+01  2.3091E-01   1.3770E+01  0.000E+00  0.000E+00  0.000E+00  1.05321E+03  8.486E-01  1.200E+01  6.000E-02  1.283E+00
   1    3    5     3     1    1.0000E+01  2.8252E-01   9.7175E+00  0.000E+00  0.000E+00  0.000E+00  1.07555E+03  1.909E+00  9.636E+00  7.227E-02  1.955E+00
   1    3    6     3     2    9.7175E+00  2.4905E-01   9.4684E+00  0.000E+00  0.000E+00  0.000E+00  1.07264E+03  1.727E+00  8.909E+00  6.682E-02  1.864E+00
   1    3    7     3     3    9.4684E+00  1.9718E-01   9.2712E+00  0.000E+00  0.000E+00  0.000E+00  1.06987E+03  1.555E+00  8.218E+00  5.547E-02  1.777E+00
   1    4    8     3     4    9.2712E+00  2.2567E-01   9.0456E+00  0.000E+00  0.000E+00  0.000E+00  1.06682E+03  1.364E+00  7.455E+00  6.709E-02  1.682E+00
   1    5    8     3     5    9.0456E+00  1.5790E-01   8.8877E+00  0.000E+00  0.000E+00  0.000E+00  1.06362E+03  1.164E+00  6.655E+00  4.991E-02  1.582E+00
   1    6    8     3     6    8.8877E+00  5.5980E-02   8.8317E+00  0.000E+00  0.000E+00  0.000E+00  1.06158E+03  1.036E+00  6.145E+00  1.844E-02  1.518E+00
   1    5   10     4     1    1.0000E+01  9.0919E-02   9.9091E+00  0.000E+00  0.000E+00  0.000E+00  1.07836E+03  6.368E-01  1.000E+01  2.500E-02  1.212E+00
   1    5    9     4     2    9.9091E+00  1.8158E-01   9.7275E+00  0.000E+00  0.000E+00  0.000E+00  1.07154E+03  6.315E-01  1.000E+01  5.000E-02  1.211E+00
   1    6    8     4     3    9.7275E+00  1.2689E-01   9.6006E+00  0.000E+00  0.000E+00  0.000E+00  1.06381E+03  6.256E-01  1.000E+01  3.500E-02  1.209E+00
   1    6    8     5     1    1.8432E+01  3.3262E-09   1.8432E+01  0.000E+00  0.000E+00  0.000E+00  1.05883E+03  8.293E-01  2.172E+01  8.686E-10  1.276E+00
   1    7    7     5     2    1.8432E+01  4.1514E-09   1.8432E+01  0.000E+00  0.000E+00  0.000E+00  1.05433E+03  8.286E-01  2.169E+01  1.084E-09  1.276E+00
   1    8    7     5     3    1.8432E+01  2.9126E-09   1.8432E+01  0.000E+00  0.000E+00  0.000E+00  1.05008E+03  8.296E-01  2.173E+01  7.606E-10  1.277E+00
   1    8    6     5     4    1.8432E+01  2.0836E-09   1.8432E+01  0.000E+00  0.000E+00  0.000E+00  1.04708E+03  8.303E-01  2.176E+01  5.440E-10  1.277E+00
   1    9    6     6     1    3.2203E+01  2.6507E-01   3.1938E+01  0.000E+00  0.000E+00  0.000E+00  1.04415E+03  1.418E+00  1.200E+01  6.000E-02  1.473E+00
   1   10    7     6     2    3.1938E+01  2.6465E-01   3.1673E+01  0.000E+00  0.000E+00  0.000E+00  1.03959E+03  1.411E+00  1.200E+01  6.000E-02  1.470E+00
   1   11    7     6     3    3.1673E+01  2.6423E-01   3.1409E+01  0.000E+00  0.000E+00  0.000E+00  1.03504E+03  1.404E+00  1.200E+01  6.000E-02  1.468E+00
   1   12    7     6     4    3.1409E+01  2.6380E-01   3.1145E+01  0.000E+00  0.000E+00  0.000E+00  1.03049E+03  1.397E+00  1.200E+01  6.000E-02  1.466E+00
   1   13    7     6     5    3.1145E+01  1.0540E-01   3.1040E+01  0.000E+00  0.000E+00  0.000E+00  1.02730E+03  1.392E+00  1.200E+01  2.400E-02  1.464E+00
   1   14    9     7     1    1.5000E+02  2.9539E-14   1.5000E+02  0.000E+00  0.000E+00  0.000E+00  1.03986E+03  2.283E+00  5.528E+01  5.591E-15  1.761E+00
   1   13    8     7     2    1.5000E+02  3.2486E-13   1.5000E+02  0.000E+00  0.000E+00  0.000E+00  1.03478E+03  2.283E+00  5.527E+01  6.150E-14  1.761E+00
   1   13    7     7     3    1.5000E+02  2.9539E-14   1.5000E+02  0.000E+00  0.000E+00  0.000E+00  1.02970E+03  2.283E+00  5.528E+01  5.591E-15  1.761E+00
   1   13    6     8     1    1.8104E+02  0.0000E+00   1.8104E+02  0.000E+00  0.000E+00  0.000E+00  1.02490E+03  3.023E+00  4.383E+01  0.000E+00  2.008E+00
   1   13    5     8     2    1.8104E+02  2.6787E-12   1.8104E+02  0.000E+00  0.000E+00  0.000E+00  1.01864E+03  3.014E+00  4.371E+01  4.454E-13  2.005E+00
   1   13    4     8     3    1.8104E+02  2.6787E-12   1.8104E+02  0.000E+00  0.000E+00  0.000E+00  1.01239E+03  3.014E+00  4.371E+01  4.454E-13  2.005E+00
   1   13    3     8     4    1.8104E+02  2.6787E-12   1.8104E+02  0.000E+00  0.000E+00  0.000E+00  1.00614E+03  3.014E+00  4.371E+01  4.454E-13  2.005E+00
   1   13    2     8     5    1.8104E+02  2.6787E-12   1.8104E+02  0.000E+00  0.000E+00  0.000E+00  9.99889E+02  3.014E+00  4.371E+01  4.454E-13  2.005E+00
   1   13    1     8     6    1.8104E+02  1.6099E-08   1.8104E+02  0.000E+00  0.000E+00  0.000E+00  9.94893E+02  3.018E+00  4.376E+01  2.675E-09  2.006E+00



 UBDSV3 SAVING "     NETRECHARGE" ON UNIT 100 AT TIME STEP 10, STRESS PERIOD   3
 UBDSV3 SAVING "    NETDISCHARGE" ON UNIT 101 AT TIME STEP 10, STRESS PERIOD   3
 UBDSV3 SAVING "           GW ET" ON UNIT  61 AT TIME STEP 10, STRESS PERIOD   3
 UBDSV3 SAVING "    UZF RECHARGE" ON UNIT  61 AT TIME STEP 10, STRESS PERIOD   3
 UBDSV3 SAVING " SURFACE LEAKAGE" ON UNIT  61 AT TIME STEP 10, STRESS PERIOD   3
 UBDSV3 SAVING "       HORT+DUNN" ON UNIT  61 AT TIME STEP 10, STRESS PERIOD   3
 UBDSV3 SAVING "  STORAGE CHANGE" ON UNIT  61 AT TIME STEP 10, STRESS PERIOD   3


UNSATURATED ZONE PACKAGE VOLUMETRIC BUDGET FOR  TIME STEP    10 STRESS PERIOD    3
  ------------------------------------------------------------------------------



     CUMULATIVE VOLUMES      L**3       RATES FOR THIS TIME STEP      L**3/T
     ------------------                 ------------------------

           IN:                                      IN:
           ---                                      ---
        INFILTRATION =    19065276.0059          INFILTRATION =           2.9000

          OUT:                                     OUT:
          ----                                     ----
              UZF ET =     1399581.9015                UZF ET =           0.6414
        UZF RECHARGE =     7621246.6355          UZF RECHARGE =       0.0000E+00

            IN - OUT =    10044447.4689              IN - OUT =           2.2586

          STORAGE:                                 STORAGE:
          --------                                 --------
      STORAGE CHANGE =    10044447.4272        STORAGE CHANGE =           2.2586

 PERCENT DISCREPANCY IS DIFFERENCE BETWEEN IN-OUT MINUS CHANGE IN STORAGE
 DIVIDED BY THE AVERAGE OF IN AND OUT TIMES 100

 PERCENT DISCREPANCY =           0.00     PERCENT DISCREPANCY =           0.00






1
  VOLUMETRIC BUDGET FOR ENTIRE MODEL AT END OF TIME STEP   10, STRESS PERIOD   3
  ------------------------------------------------------------------------------

     CUMULATIVE VOLUMES      L**3       RATES FOR THIS TIME STEP      L**3/T
     ------------------                 ------------------------

           IN:                                      IN:
           ---                                      ---
             STORAGE =   129846272.0000               STORAGE =          32.9108
       CONSTANT HEAD =           0.0000         CONSTANT HEAD =           0.0000
               WELLS =           0.0000                 WELLS =           0.0000
     HEAD DEP BOUNDS =    20551314.0000       HEAD DEP BOUNDS =           3.1271
      STREAM LEAKAGE =    26107368.0000        STREAM LEAKAGE =           3.9604
        UZF RECHARGE =     7621252.0000          UZF RECHARGE =           0.0000
               GW ET =           0.0000                 GW ET =           0.0000
     SURFACE LEAKAGE =           0.0000       SURFACE LEAKAGE =           0.0000

            TOTAL IN =   184126192.0000              TOTAL IN =          39.9983

          OUT:                                     OUT:
          ----                                     ----
             STORAGE =        1483.9338               STORAGE =           0.0000
       CONSTANT HEAD =           0.0000         CONSTANT HEAD =           0.0000
               WELLS =   184129344.0000                 WELLS =          40.0000
     HEAD DEP BOUNDS =           0.0000       HEAD DEP BOUNDS =           0.0000
      STREAM LEAKAGE =           0.0000        STREAM LEAKAGE =           0.0000
        UZF RECHARGE =           0.0000          UZF RECHARGE =           0.0000
               GW ET =           0.0000                 GW ET =           0.0000
     SURFACE LEAKAGE =           0.0000       SURFACE LEAKAGE =           0.0000

           TOTAL OUT =   184130832.0000             TOTAL OUT =          40.0000

            IN - OUT =       -4640.0000              IN - OUT =      -1.6632E-03

 PERCENT DISCREPANCY =          -0.00     PERCENT DISCREPANCY =          -0.00






         TIME SUMMARY AT END OF TIME STEP   10 IN STRESS PERIOD    3
                    SECONDS     MINUTES      HOURS       DAYS        YEARS
                    -----------------------------------------------------------
   TIME STEP LENGTH 1.95033E+05  3250.6      54.176      2.2573     6.18023E-03
 STRESS PERIOD TIME 1.31823E+06  21971.      366.18      15.257     4.17723E-02
         TOTAL TIME 6.57423E+06 1.09571E+05  1826.2      76.091     0.20832    
1
 
 SOLVING FOR HEAD 
                                                   Max.-Head-Change                         Max.-Flux-Residual
  Residual-Control   Outer-Iter.   Inner-Iter.     Column Row Layer    Maximum-Head-Change  Column Row Layer    Maximum-Flux-Residual          L2-NORM 
          0                 1           2             4    8     1      -0.1145702793E+00       4    8    1        -0.2463461281E+01      0.6814558941E+01
          0                 2           2             4    8     1       0.1135252340E-01       4    8    1         0.2463366741E+00      0.6814437408E+00
          0                 3           2             4    8     1      -0.1012450807E-02       4    8    1        -0.2217039624E-01      0.6133006361E-01
          0                 4           1             4    8     1       0.8036141287E-04       4    8    1         0.1775848458E-02      0.4912538396E-02

    ------------------------------------------------
       NWT REQUIRED            4 OUTER ITERATIONS 
       AND A TOTAL OF          7 INNER ITERATIONS.
    ------------------------------------------------

 NO OUTPUT CONTROL FOR STRESS PERIOD    3   TIME STEP   11
 
 SOLVING FOR HEAD 
                                                   Max.-Head-Change                         Max.-Flux-Residual
  Residual-Control   Outer-Iter.   Inner-Iter.     Column Row Layer    Maximum-Head-Change  Column Row Layer    Maximum-Flux-Residual          L2-NORM 
          0                 1           2             4    8     1      -0.1242038971E+00       4    8    1        -0.2431137898E+01      0.6734843845E+01
          0                 2           2             4    8     1       0.1230715847E-01       4    8    1         0.2431026303E+00      0.6734723064E+00
          0                 3           2             4    8     1      -0.1097588640E-02       4    8    1        -0.2187934895E-01      0.6061265118E-01
          0                 4           1             4    8     1       0.8711906492E-04       4    8    1         0.1752535422E-02      0.4855073511E-02

    ------------------------------------------------
       NWT REQUIRED            4 OUTER ITERATIONS 
       AND A TOTAL OF          7 INNER ITERATIONS.
    ------------------------------------------------

 NO OUTPUT CONTROL FOR STRESS PERIOD    3   TIME STEP   12
 
 SOLVING FOR HEAD 
                                                   Max.-Head-Change                         Max.-Flux-Residual
  Residual-Control   Outer-Iter.   Inner-Iter.     Column Row Layer    Maximum-Head-Change  Column Row Layer    Maximum-Flux-Residual          L2-NORM 
          0                 1           2             4    8     1      -0.1344471175E+00       4    8    1        -0.2395958129E+01      0.6651181752E+01
          0                 2           2             4    8     1       0.1332190410E-01       4    8    1         0.2395826652E+00      0.6651024033E+00
          0                 3           2             4    8     1      -0.1188087575E-02       4    8    1        -0.2156257162E-01      0.5985937858E-01
          0                 4           1             4    8     1       0.9430224200E-04       4    8    1         0.1727161394E-02      0.4794736209E-02

    ------------------------------------------------
       NWT REQUIRED            4 OUTER ITERATIONS 
       AND A TOTAL OF          7 INNER ITERATIONS.
    ------------------------------------------------

 NO OUTPUT CONTROL FOR STRESS PERIOD    3   TIME STEP   13
 
 SOLVING FOR HEAD 
                                                   Max.-Head-Change                         Max.-Flux-Residual
  Residual-Control   Outer-Iter.   Inner-Iter.     Column Row Layer    Maximum-Head-Change  Column Row Layer    Maximum-Flux-Residual          L2-NORM 
          0                 1           2             4    8     1      -0.1453017620E+00       4    8    1        -0.2357782927E+01      0.6563646332E+01
          0                 2           2             4    8     1       0.1439733435E-01       4    8    1         0.2357628458E+00      0.6563467295E+00
          0                 3           2             4    8     1      -0.1283998872E-02       4    8    1        -0.2121881042E-01      0.5907138877E-01
          0                 4           1             4    8     1       0.1019150135E-03       4    8    1         0.1699625942E-02      0.4731618041E-02
          0                 5           1             4    8     1      -0.7099574280E-05       4    8    1        -0.1194820384E-03      0.3326281423E-03

    ------------------------------------------------
       NWT REQUIRED            5 OUTER ITERATIONS 
       AND A TOTAL OF          8 INNER ITERATIONS.
    ------------------------------------------------

 NO OUTPUT CONTROL FOR STRESS PERIOD    3   TIME STEP   14
 
 SOLVING FOR HEAD 
                                                   Max.-Head-Change                         Max.-Flux-Residual
  Residual-Control   Outer-Iter.   Inner-Iter.     Column Row Layer    Maximum-Head-Change  Column Row Layer    Maximum-Flux-Residual          L2-NORM 
          0                 1           2             4    8     1      -0.1567615424E+00       4    8    1        -0.2316487439E+01      0.6472346996E+01
          0                 2           2             4    8     1       0.1553268452E-01       4    8    1         0.2316306587E+00      0.6472144360E+00
          0                 3           2             4    8     1      -0.1385254413E-02       4    8    1        -0.2084693941E-01      0.5824950542E-01
          0                 4           2             4    8     1       0.1099519716E-03       4    8    1         0.1669838857E-02      0.4665784986E-02
          0                 5           1             4    8     1      -0.7659443460E-05       4    8    1        -0.1173880514E-03      0.3280001639E-03

    ------------------------------------------------
       NWT REQUIRED            5 OUTER ITERATIONS 
       AND A TOTAL OF          9 INNER ITERATIONS.
    ------------------------------------------------

 OUTPUT CONTROL FOR STRESS PERIOD    3   TIME STEP   15
    PRINT BUDGET
    PRINT HEAD FOR ALL LAYERS
    SAVE HEAD FOR ALL LAYERS
    SAVE BUDGET

            WELLS   PERIOD    3   STEP  15
 WELL      1   LAYER   1   ROW     6   COL     4   RATE    -4.00000    
 WELL      2   LAYER   1   ROW     6   COL     5   RATE    -4.00000    
 WELL      3   LAYER   1   ROW     7   COL     4   RATE    -4.00000    
 WELL      4   LAYER   1   ROW     7   COL     5   RATE    -4.00000    
 WELL      5   LAYER   1   ROW     8   COL     4   RATE    -4.00000    
 WELL      6   LAYER   1   ROW     8   COL     5   RATE    -4.00000    
 WELL      7   LAYER   1   ROW     9   COL     4   RATE    -4.00000    
 WELL      8   LAYER   1   ROW     9   COL     5   RATE    -4.00000    
 WELL      9   LAYER   1   ROW    10   COL     4   RATE    -4.00000    
 WELL     10   LAYER   1   ROW    10   COL     5   RATE    -4.00000    

  HEAD DEP BOUNDS   PERIOD    3   STEP  15
 BOUNDARY      1   LAYER   1   ROW    13   COL     1   RATE    0.758775    
 BOUNDARY      2   LAYER   1   ROW    14   COL     9   RATE     2.36880    



 STREAM LISTING     PERIOD      3   STEP       15

 LAYER ROW COL. STREAM  RCH.  FLOW INTO     FLOW TO   FLOW OUT OF   OVRLND.     DIRECT     STREAM       STREAM     STREAM     STREAM   STREAMBED  STREAMBED
                SEG.NO.  NO.  STRM. RCH.    AQUIFER    STRM. RCH.    RUNOFF     PRECIP       ET          HEAD       DEPTH      WIDTH   CONDCTNC.   GRADIENT

   1    1    1     1     1    2.5000E+01  2.4515E-09   2.5000E+01  0.000E+00  0.000E+00  0.000E+00  1.09423E+03  1.178E+00  1.304E+01  5.867E-10  1.393E+00
   1    2    2     1     2    2.5000E+01  3.8085E-09   2.5000E+01  0.000E+00  0.000E+00  0.000E+00  1.08924E+03  1.177E+00  1.302E+01  9.117E-10  1.392E+00
   1    3    3     1     3    2.5000E+01  3.2661E-09   2.5000E+01  0.000E+00  0.000E+00  0.000E+00  1.08360E+03  1.178E+00  1.303E+01  7.818E-10  1.393E+00
   1    3    4     1     4    2.5000E+01  3.0219E-09   2.5000E+01  0.000E+00  0.000E+00  0.000E+00  1.07859E+03  1.178E+00  1.303E+01  7.233E-10  1.393E+00
   1    4    5     2     1    1.5000E+01  3.0290E-01   1.4697E+01  0.000E+00  0.000E+00  0.000E+00  1.07282E+03  8.834E-01  1.200E+01  7.800E-02  1.294E+00
   1    5    6     2     2    1.4697E+01  2.3243E-01   1.4465E+01  0.000E+00  0.000E+00  0.000E+00  1.06738E+03  8.738E-01  1.200E+01  6.000E-02  1.291E+00
   1    6    6     2     3    1.4465E+01  2.3193E-01   1.4233E+01  0.000E+00  0.000E+00  0.000E+00  1.06266E+03  8.654E-01  1.200E+01  6.000E-02  1.288E+00
   1    7    6     2     4    1.4233E+01  2.3142E-01   1.4001E+01  0.000E+00  0.000E+00  0.000E+00  1.05793E+03  8.570E-01  1.200E+01  6.000E-02  1.286E+00
   1    8    6     2     5    1.4001E+01  2.3091E-01   1.3770E+01  0.000E+00  0.000E+00  0.000E+00  1.05321E+03  8.486E-01  1.200E+01  6.000E-02  1.283E+00
   1    3    5     3     1    1.0000E+01  2.8252E-01   9.7175E+00  0.000E+00  0.000E+00  0.000E+00  1.07555E+03  1.909E+00  9.636E+00  7.227E-02  1.955E+00
   1    3    6     3     2    9.7175E+00  2.4905E-01   9.4684E+00  0.000E+00  0.000E+00  0.000E+00  1.07264E+03  1.727E+00  8.909E+00  6.682E-02  1.864E+00
   1    3    7     3     3    9.4684E+00  1.9718E-01   9.2712E+00  0.000E+00  0.000E+00  0.000E+00  1.06987E+03  1.555E+00  8.218E+00  5.547E-02  1.777E+00
   1    4    8     3     4    9.2712E+00  2.2567E-01   9.0456E+00  0.000E+00  0.000E+00  0.000E+00  1.06682E+03  1.364E+00  7.455E+00  6.709E-02  1.682E+00
   1    5    8     3     5    9.0456E+00  1.5790E-01   8.8877E+00  0.000E+00  0.000E+00  0.000E+00  1.06362E+03  1.164E+00  6.655E+00  4.991E-02  1.582E+00
   1    6    8     3     6    8.8877E+00  5.5980E-02   8.8317E+00  0.000E+00  0.000E+00  0.000E+00  1.06158E+03  1.036E+00  6.145E+00  1.844E-02  1.518E+00
   1    5   10     4     1    1.0000E+01  9.0919E-02   9.9091E+00  0.000E+00  0.000E+00  0.000E+00  1.07836E+03  6.368E-01  1.000E+01  2.500E-02  1.212E+00
   1    5    9     4     2    9.9091E+00  1.8158E-01   9.7275E+00  0.000E+00  0.000E+00  0.000E+00  1.07154E+03  6.315E-01  1.000E+01  5.000E-02  1.211E+00
   1    6    8     4     3    9.7275E+00  1.2689E-01   9.6006E+00  0.000E+00  0.000E+00  0.000E+00  1.06381E+03  6.256E-01  1.000E+01  3.500E-02  1.209E+00
   1    6    8     5     1    1.8432E+01  3.3262E-09   1.8432E+01  0.000E+00  0.000E+00  0.000E+00  1.05883E+03  8.293E-01  2.172E+01  8.686E-10  1.276E+00
   1    7    7     5     2    1.8432E+01  4.1514E-09   1.8432E+01  0.000E+00  0.000E+00  0.000E+00  1.05433E+03  8.286E-01  2.169E+01  1.084E-09  1.276E+00
   1    8    7     5     3    1.8432E+01  2.9126E-09   1.8432E+01  0.000E+00  0.000E+00  0.000E+00  1.05008E+03  8.296E-01  2.173E+01  7.606E-10  1.277E+00
   1    8    6     5     4    1.8432E+01  2.0836E-09   1.8432E+01  0.000E+00  0.000E+00  0.000E+00  1.04708E+03  8.303E-01  2.176E+01  5.440E-10  1.277E+00
   1    9    6     6     1    3.2203E+01  2.6507E-01   3.1938E+01  0.000E+00  0.000E+00  0.000E+00  1.04415E+03  1.418E+00  1.200E+01  6.000E-02  1.473E+00
   1   10    7     6     2    3.1938E+01  2.6465E-01   3.1673E+01  0.000E+00  0.000E+00  0.000E+00  1.03959E+03  1.411E+00  1.200E+01  6.000E-02  1.470E+00
   1   11    7     6     3    3.1673E+01  2.6423E-01   3.1409E+01  0.000E+00  0.000E+00  0.000E+00  1.03504E+03  1.404E+00  1.200E+01  6.000E-02  1.468E+00
   1   12    7     6     4    3.1409E+01  2.6380E-01   3.1145E+01  0.000E+00  0.000E+00  0.000E+00  1.03049E+03  1.397E+00  1.200E+01  6.000E-02  1.466E+00
   1   13    7     6     5    3.1145E+01  1.0540E-01   3.1040E+01  0.000E+00  0.000E+00  0.000E+00  1.02730E+03  1.392E+00  1.200E+01  2.400E-02  1.464E+00
   1   14    9     7     1    1.5000E+02  2.9539E-14   1.5000E+02  0.000E+00  0.000E+00  0.000E+00  1.03986E+03  2.283E+00  5.528E+01  5.591E-15  1.761E+00
   1   13    8     7     2    1.5000E+02  3.2486E-13   1.5000E+02  0.000E+00  0.000E+00  0.000E+00  1.03478E+03  2.283E+00  5.527E+01  6.150E-14  1.761E+00
   1   13    7     7     3    1.5000E+02  2.9539E-14   1.5000E+02  0.000E+00  0.000E+00  0.000E+00  1.02970E+03  2.283E+00  5.528E+01  5.591E-15  1.761E+00
   1   13    6     8     1    1.8104E+02  0.0000E+00   1.8104E+02  0.000E+00  0.000E+00  0.000E+00  1.02490E+03  3.023E+00  4.383E+01  0.000E+00  2.008E+00
   1   13    5     8     2    1.8104E+02  2.6787E-12   1.8104E+02  0.000E+00  0.000E+00  0.000E+00  1.01864E+03  3.014E+00  4.371E+01  4.454E-13  2.005E+00
   1   13    4     8     3    1.8104E+02  2.6787E-12   1.8104E+02  0.000E+00  0.000E+00  0.000E+00  1.01239E+03  3.014E+00  4.371E+01  4.454E-13  2.005E+00
   1   13    3     8     4    1.8104E+02  2.6787E-12   1.8104E+02  0.000E+00  0.000E+00  0.000E+00  1.00614E+03  3.014E+00  4.371E+01  4.454E-13  2.005E+00
   1   13    2     8     5    1.8104E+02  2.6787E-12   1.8104E+02  0.000E+00  0.000E+00  0.000E+00  9.99889E+02  3.014E+00  4.371E+01  4.454E-13  2.005E+00
   1   13    1     8     6    1.8104E+02  1.6099E-08   1.8104E+02  0.000E+00  0.000E+00  0.000E+00  9.94893E+02  3.018E+00  4.376E+01  2.675E-09  2.006E+00



 UBDSV3 SAVING "     NETRECHARGE" ON UNIT 100 AT TIME STEP 15, STRESS PERIOD   3
 UBDSV3 SAVING "    NETDISCHARGE" ON UNIT 101 AT TIME STEP 15, STRESS PERIOD   3
 UBDSV3 SAVING "           GW ET" ON UNIT  61 AT TIME STEP 15, STRESS PERIOD   3
 UBDSV3 SAVING "    UZF RECHARGE" ON UNIT  61 AT TIME STEP 15, STRESS PERIOD   3
 UBDSV3 SAVING " SURFACE LEAKAGE" ON UNIT  61 AT TIME STEP 15, STRESS PERIOD   3
 UBDSV3 SAVING "       HORT+DUNN" ON UNIT  61 AT TIME STEP 15, STRESS PERIOD   3
 UBDSV3 SAVING "  STORAGE CHANGE" ON UNIT  61 AT TIME STEP 15, STRESS PERIOD   3


UNSATURATED ZONE PACKAGE VOLUMETRIC BUDGET FOR  TIME STEP    15 STRESS PERIOD    3
  ------------------------------------------------------------------------------



     CUMULATIVE VOLUMES      L**3       RATES FOR THIS TIME STEP      L**3/T
     ------------------                 ------------------------

           IN:                                      IN:
           ---                                      ---
        INFILTRATION =    22863598.3574          INFILTRATION =           2.9000

          OUT:                                     OUT:
          ----                                     ----
              UZF ET =     2364229.8903                UZF ET =           0.7961
        UZF RECHARGE =     7621246.6355          UZF RECHARGE =       0.0000E+00

            IN - OUT =    12878121.8317              IN - OUT =           2.1039

          STORAGE:                                 STORAGE:
          --------                                 --------
      STORAGE CHANGE =    12878121.8119        STORAGE CHANGE =           2.1039

 PERCENT DISCREPANCY IS DIFFERENCE BETWEEN IN-OUT MINUS CHANGE IN STORAGE
 DIVIDED BY THE AVERAGE OF IN AND OUT TIMES 100

 PERCENT DISCREPANCY =           0.00     PERCENT DISCREPANCY =           0.00






1
              HEAD IN LAYER   1 AT END OF TIME STEP  15 IN STRESS PERIOD    3
  ---------------------------------------------------------------------------

           1       2       3       4       5       6       7       8       9      10
 ...................................................................................
   1  1003.39 1000.51 6999.00 6999.00 6999.00 6999.00 6999.00 6999.00 6999.00 6999.00
   2  1001.03  958.89  958.31 6999.00 6999.00  964.52  964.99  965.38 6999.00 6999.00
   3  6999.00  958.07  957.51  957.37  958.36  959.75  960.92  961.71 6999.00 6999.00
   4   959.19  957.72  957.03  956.76  957.08  957.47  958.56  960.84  962.11 6999.00
   5   958.83  956.99  956.15  955.40  955.81  956.82  957.51  958.42  959.82  964.31
   6   958.46  956.43  954.98  952.53  953.19  955.92  957.06  957.88  959.15  972.30
   7   958.23  956.10  954.43  951.53  952.36  955.48  956.77  957.45  960.89 6999.00
   8  6999.00  956.12  954.49  951.42  952.34  955.48  956.78  957.78  962.45 6999.00
   9  6999.00  956.74  955.13  952.12  952.99  956.00  957.37  958.73  963.57 6999.00
  10  6999.00  957.94  956.40  953.75  954.41  957.01  958.39  960.00  963.87  967.44
  11  6999.00  959.74  958.49  957.31  957.62  958.71  959.93  961.86  966.00 6999.00
  12   966.05  961.74  959.99  959.23  959.36  960.19  961.55  964.80  970.95 6999.00
  13   968.03  962.93  960.94  960.23  960.36  961.36  963.60  967.97  976.65 6999.00
  14  6999.00  964.08  961.61  961.32  961.70  963.14  966.47  973.63  982.66 6999.00
  15  6999.00 6999.00  965.60  965.60  965.88  966.41 6999.00 6999.00 6999.00 6999.00

 HEAD WILL BE SAVED ON UNIT   58 AT END OF TIME STEP   15, STRESS PERIOD    3
1
  VOLUMETRIC BUDGET FOR ENTIRE MODEL AT END OF TIME STEP   15, STRESS PERIOD   3
  ------------------------------------------------------------------------------

     CUMULATIVE VOLUMES      L**3       RATES FOR THIS TIME STEP      L**3/T
     ------------------                 ------------------------

           IN:                                      IN:
           ---                                      ---
             STORAGE =   172952432.0000               STORAGE =          32.9121
       CONSTANT HEAD =           0.0000         CONSTANT HEAD =           0.0000
               WELLS =           0.0000                 WELLS =           0.0000
     HEAD DEP BOUNDS =    24647442.0000       HEAD DEP BOUNDS =           3.1276
      STREAM LEAKAGE =    31294612.0000        STREAM LEAKAGE =           3.9604
        UZF RECHARGE =     7621252.0000          UZF RECHARGE =           0.0000
               GW ET =           0.0000                 GW ET =           0.0000
     SURFACE LEAKAGE =           0.0000       SURFACE LEAKAGE =           0.0000

            TOTAL IN =   236515728.0000              TOTAL IN =          40.0001

          OUT:                                     OUT:
          ----                                     ----
             STORAGE =        1483.9338               STORAGE =           0.0000
       CONSTANT HEAD =           0.0000         CONSTANT HEAD =           0.0000
               WELLS =   236520000.0000                 WELLS =          40.0000
     HEAD DEP BOUNDS =           0.0000       HEAD DEP BOUNDS =           0.0000
      STREAM LEAKAGE =           0.0000        STREAM LEAKAGE =           0.0000
        UZF RECHARGE =           0.0000          UZF RECHARGE =           0.0000
               GW ET =           0.0000                 GW ET =           0.0000
     SURFACE LEAKAGE =           0.0000       SURFACE LEAKAGE =           0.0000

           TOTAL OUT =   236521488.0000             TOTAL OUT =          40.0000

            IN - OUT =       -5760.0000              IN - OUT =       1.0681E-04

 PERCENT DISCREPANCY =          -0.00     PERCENT DISCREPANCY =           0.00






         TIME SUMMARY AT END OF TIME STEP   15 IN STRESS PERIOD    3
                    SECONDS     MINUTES      HOURS       DAYS        YEARS
                    -----------------------------------------------------------
   TIME STEP LENGTH 3.14103E+05  5235.0      87.251      3.6354     9.95332E-03
 STRESS PERIOD TIME 2.62800E+06  43800.      730.00      30.417     8.32763E-02
         TOTAL TIME 7.88400E+06 1.31400E+05  2190.0      91.250     0.24983    
1
1
                            STRESS PERIOD NO.    4, LENGTH =   2628000.    
                            -----------------------------------------------

                              NUMBER OF TIME STEPS =    15

                               MULTIPLIER FOR DELT =     1.100

                            INITIAL TIME STEP SIZE =   82713.07    

 WELL NO.  LAYER   ROW   COL   STRESS RATE         
 --------------------------------------------------
      1      1      6      4      -4.000    
      2      1      6      5      -4.000    
      3      1      7      4      -4.000    
      4      1      7      5      -4.000    
      5      1      8      4      -4.000    
      6      1      8      5      -4.000    
      7      1      9      4      -4.000    
      8      1      9      5      -4.000    
      9      1     10      4      -4.000    
     10      1     10      5      -4.000    

     10 WELLS

 REUSING NON-PARAMETER GHB CELLS FROM LAST STRESS PERIOD

      2 GHB CELLS

 REUSING STREAM SEGMENT DATA FROM LAST STRESS PERIOD



            AREAL INFILTRATION RATE
 READING ON UNIT   19 WITH FORMAT: (10F4.0)            

            1           2           3           4           5           6           7           8           9          10
 ........................................................................................................................
   1   2.0000E-08  4.0000E-08   0.000       0.000       0.000       0.000       0.000       0.000       0.000       0.000    
   2   4.0000E-08  2.0000E-08  4.0000E-08   0.000       0.000      1.6000E-07  1.6000E-07  1.0000E-07   0.000       0.000    
   3    0.000      1.0000E-07  2.0000E-08  2.0000E-08  1.6000E-07  1.6000E-07  1.0000E-07  1.0000E-07   0.000       0.000    
   4   1.6000E-07  1.0000E-07  2.0000E-08  2.0000E-08  2.0000E-08  2.0000E-08  2.0000E-08  2.0000E-08  4.0000E-08   0.000    
   5   1.6000E-07  1.0000E-07  2.0000E-08  2.0000E-08  2.0000E-08  2.0000E-08  2.0000E-08  2.0000E-08  2.0000E-08  2.0000E-08
   6   1.6000E-07  1.0000E-07  1.0000E-07  4.0000E-08  4.0000E-08  2.0000E-08  2.0000E-08  2.0000E-08  2.0000E-08  1.0000E-07
   7   1.6000E-07  1.0000E-07  1.0000E-07  4.0000E-08  4.0000E-08  2.0000E-08  2.0000E-08  4.0000E-08  4.0000E-08   0.000    
   8    0.000      1.0000E-07  1.0000E-07  4.0000E-08  4.0000E-08  2.0000E-08  2.0000E-08  4.0000E-08  1.0000E-07   0.000    
   9    0.000      1.0000E-07  1.0000E-07  4.0000E-08  4.0000E-08  2.0000E-08  2.0000E-08  4.0000E-08  1.0000E-07   0.000    
  10    0.000      1.0000E-07  1.0000E-07  4.0000E-08  4.0000E-08  2.0000E-08  2.0000E-08  4.0000E-08  1.0000E-07  1.6000E-07
  11    0.000      2.0000E-08  2.0000E-08  2.0000E-08  2.0000E-08  2.0000E-08  2.0000E-08  4.0000E-08  1.0000E-07   0.000    
  12   2.0000E-08  2.0000E-08  2.0000E-08  2.0000E-08  2.0000E-08  2.0000E-08  2.0000E-08  2.0000E-08  4.0000E-08   0.000    
  13   2.0000E-08  2.0000E-08  4.0000E-08  4.0000E-08  4.0000E-08  4.0000E-08  4.0000E-08  2.0000E-08  2.0000E-08   0.000    
  14    0.000      4.0000E-08  1.0000E-07  1.0000E-07  1.0000E-07  1.0000E-07  1.0000E-07  4.0000E-08  2.0000E-08   0.000    
  15    0.000       0.000      1.6000E-07  1.6000E-07  1.6000E-07  1.6000E-07   0.000       0.000       0.000       0.000    

USING ET RATE FROM PREVIOUS STRESS PERIOD. CURRENT PERIOD IS:       4

 USING ET EXTINCTION DEPTH FROM PREVIOUS STRESS PERIOD. CURRENT PERIOD IS:       4

 USING EXTINCTION WATER CONTENT FROM PREVIOUS STRESS PERIOD. CURRENT PERIOD IS:       4
 
 SOLVING FOR HEAD 
                                                   Max.-Head-Change                         Max.-Flux-Residual
  Residual-Control   Outer-Iter.   Inner-Iter.     Column Row Layer    Maximum-Head-Change  Column Row Layer    Maximum-Flux-Residual          L2-NORM 
          0                 1           2             4    8     1      -0.4106871462E-01       4    8    1        -0.2271988536E+01      0.6354665693E+01
          0                 2           2             4    8     1       0.4069512770E-02       4    8    1         0.2271972344E+00      0.6354644120E+00
          0                 3           2             4    8     1      -0.3629298844E-03       4    8    1        -0.2044776953E-01      0.5719182535E-01
          0                 4           1             4    8     1       0.2880689716E-04       4    8    1         0.1637866623E-02      0.4581066216E-02

    ------------------------------------------------
       NWT REQUIRED            4 OUTER ITERATIONS 
       AND A TOTAL OF          7 INNER ITERATIONS.
    ------------------------------------------------

 NO OUTPUT CONTROL FOR STRESS PERIOD    4   TIME STEP    1
 
 SOLVING FOR HEAD 
                                                   Max.-Head-Change                         Max.-Flux-Residual
  Residual-Control   Outer-Iter.   Inner-Iter.     Column Row Layer    Maximum-Head-Change  Column Row Layer    Maximum-Flux-Residual          L2-NORM 
          0                 1           2             4    8     1      -0.4492105144E-01       4    8    1        -0.2260337343E+01      0.6352848824E+01
          0                 2           2             4    8     1       0.4451237709E-02       4    8    1         0.2260318454E+00      0.6352824281E+00
          0                 3           2             4    8     1      -0.3969731655E-03       4    8    1        -0.2034288715E-01      0.5717544972E-01
          0                 4           1             4    8     1       0.3150902064E-04       4    8    1         0.1629465539E-02      0.4579754494E-02

    ------------------------------------------------
       NWT REQUIRED            4 OUTER ITERATIONS 
       AND A TOTAL OF          7 INNER ITERATIONS.
    ------------------------------------------------

 NO OUTPUT CONTROL FOR STRESS PERIOD    4   TIME STEP    2
 
 SOLVING FOR HEAD 
                                                   Max.-Head-Change                         Max.-Flux-Residual
  Residual-Control   Outer-Iter.   Inner-Iter.     Column Row Layer    Maximum-Head-Change  Column Row Layer    Maximum-Flux-Residual          L2-NORM 
          0                 1           2             4    8     1      -0.4910731354E-01       4    8    1        -0.2247599502E+01      0.6326404873E+01
          0                 2           2             4    8     1       0.4866049712E-02       4    8    1         0.2247577443E+00      0.6326376845E+00
          0                 3           2             4    8     1      -0.4339672548E-03       4    8    1        -0.2022822116E-01      0.5693742620E-01
          0                 4           1             4    8     1       0.3444535826E-04       4    8    1         0.1620280749E-02      0.4560688772E-02

    ------------------------------------------------
       NWT REQUIRED            4 OUTER ITERATIONS 
       AND A TOTAL OF          7 INNER ITERATIONS.
    ------------------------------------------------

 NO OUTPUT CONTROL FOR STRESS PERIOD    4   TIME STEP    3
 
 SOLVING FOR HEAD 
                                                   Max.-Head-Change                         Max.-Flux-Residual
  Residual-Control   Outer-Iter.   Inner-Iter.     Column Row Layer    Maximum-Head-Change  Column Row Layer    Maximum-Flux-Residual          L2-NORM 
          0                 1           2             4    8     1      -0.5365092543E-01       4    8    1        -0.2233686410E+01      0.6297825225E+01
          0                 2           2             4    8     1       0.5316269395E-02       4    8    1         0.2233660629E+00      0.6297793195E+00
          0                 3           2             4    8     1      -0.4741191166E-03       4    8    1        -0.2010297347E-01      0.5668017724E-01
          0                 4           1             4    8     1       0.3763233801E-04       4    8    1         0.1610248376E-02      0.4540083104E-02

    ------------------------------------------------
       NWT REQUIRED            4 OUTER ITERATIONS 
       AND A TOTAL OF          7 INNER ITERATIONS.
    ------------------------------------------------

 NO OUTPUT CONTROL FOR STRESS PERIOD    4   TIME STEP    4
 
 SOLVING FOR HEAD 
                                                   Max.-Head-Change                         Max.-Flux-Residual
  Residual-Control   Outer-Iter.   Inner-Iter.     Column Row Layer    Maximum-Head-Change  Column Row Layer    Maximum-Flux-Residual          L2-NORM 
          0                 1           2             4    8     1      -0.5857589231E-01       4    8    1        -0.2218507148E+01      0.6266983229E+01
          0                 2           2             4    8     1       0.5804274765E-02       4    8    1         0.2218476999E+00      0.6266946611E+00
          0                 3           2             4    8     1      -0.5176408350E-03       4    8    1        -0.1996632508E-01      0.5640256245E-01
          0                 4           1             4    8     1       0.4108679454E-04       4    8    1         0.1599302812E-02      0.4517846111E-02

    ------------------------------------------------
       NWT REQUIRED            4 OUTER ITERATIONS 
       AND A TOTAL OF          7 INNER ITERATIONS.
    ------------------------------------------------

 OUTPUT CONTROL FOR STRESS PERIOD    4   TIME STEP    5
    PRINT BUDGET
    SAVE BUDGET

            WELLS   PERIOD    4   STEP   5
 WELL      1   LAYER   1   ROW     6   COL     4   RATE    -4.00000    
 WELL      2   LAYER   1   ROW     6   COL     5   RATE    -4.00000    
 WELL      3   LAYER   1   ROW     7   COL     4   RATE    -4.00000    
 WELL      4   LAYER   1   ROW     7   COL     5   RATE    -4.00000    
 WELL      5   LAYER   1   ROW     8   COL     4   RATE    -4.00000    
 WELL      6   LAYER   1   ROW     8   COL     5   RATE    -4.00000    
 WELL      7   LAYER   1   ROW     9   COL     4   RATE    -4.00000    
 WELL      8   LAYER   1   ROW     9   COL     5   RATE    -4.00000    
 WELL      9   LAYER   1   ROW    10   COL     4   RATE    -4.00000    
 WELL     10   LAYER   1   ROW    10   COL     5   RATE    -4.00000    

  HEAD DEP BOUNDS   PERIOD    4   STEP   5
 BOUNDARY      1   LAYER   1   ROW    13   COL     1   RATE    0.758871    
 BOUNDARY      2   LAYER   1   ROW    14   COL     9   RATE     2.36890    



 STREAM LISTING     PERIOD      4   STEP        5

 LAYER ROW COL. STREAM  RCH.  FLOW INTO     FLOW TO   FLOW OUT OF   OVRLND.     DIRECT     STREAM       STREAM     STREAM     STREAM   STREAMBED  STREAMBED
                SEG.NO.  NO.  STRM. RCH.    AQUIFER    STRM. RCH.    RUNOFF     PRECIP       ET          HEAD       DEPTH      WIDTH   CONDCTNC.   GRADIENT

   1    1    1     1     1    2.5000E+01  2.4515E-09   2.5000E+01  0.000E+00  0.000E+00  0.000E+00  1.09423E+03  1.178E+00  1.304E+01  5.867E-10  1.393E+00
   1    2    2     1     2    2.5000E+01  3.8085E-09   2.5000E+01  0.000E+00  0.000E+00  0.000E+00  1.08924E+03  1.177E+00  1.302E+01  9.117E-10  1.392E+00
   1    3    3     1     3    2.5000E+01  3.2661E-09   2.5000E+01  0.000E+00  0.000E+00  0.000E+00  1.08360E+03  1.178E+00  1.303E+01  7.818E-10  1.393E+00
   1    3    4     1     4    2.5000E+01  3.0219E-09   2.5000E+01  0.000E+00  0.000E+00  0.000E+00  1.07859E+03  1.178E+00  1.303E+01  7.233E-10  1.393E+00
   1    4    5     2     1    1.5000E+01  3.0290E-01   1.4697E+01  0.000E+00  0.000E+00  0.000E+00  1.07282E+03  8.834E-01  1.200E+01  7.800E-02  1.294E+00
   1    5    6     2     2    1.4697E+01  2.3243E-01   1.4465E+01  0.000E+00  0.000E+00  0.000E+00  1.06738E+03  8.738E-01  1.200E+01  6.000E-02  1.291E+00
   1    6    6     2     3    1.4465E+01  2.3193E-01   1.4233E+01  0.000E+00  0.000E+00  0.000E+00  1.06266E+03  8.654E-01  1.200E+01  6.000E-02  1.288E+00
   1    7    6     2     4    1.4233E+01  2.3142E-01   1.4001E+01  0.000E+00  0.000E+00  0.000E+00  1.05793E+03  8.570E-01  1.200E+01  6.000E-02  1.286E+00
   1    8    6     2     5    1.4001E+01  2.3091E-01   1.3770E+01  0.000E+00  0.000E+00  0.000E+00  1.05321E+03  8.486E-01  1.200E+01  6.000E-02  1.283E+00
   1    3    5     3     1    1.0000E+01  2.8252E-01   9.7175E+00  0.000E+00  0.000E+00  0.000E+00  1.07555E+03  1.909E+00  9.636E+00  7.227E-02  1.955E+00
   1    3    6     3     2    9.7175E+00  2.4905E-01   9.4684E+00  0.000E+00  0.000E+00  0.000E+00  1.07264E+03  1.727E+00  8.909E+00  6.682E-02  1.864E+00
   1    3    7     3     3    9.4684E+00  1.9718E-01   9.2712E+00  0.000E+00  0.000E+00  0.000E+00  1.06987E+03  1.555E+00  8.218E+00  5.547E-02  1.777E+00
   1    4    8     3     4    9.2712E+00  2.2567E-01   9.0456E+00  0.000E+00  0.000E+00  0.000E+00  1.06682E+03  1.364E+00  7.455E+00  6.709E-02  1.682E+00
   1    5    8     3     5    9.0456E+00  1.5790E-01   8.8877E+00  0.000E+00  0.000E+00  0.000E+00  1.06362E+03  1.164E+00  6.655E+00  4.991E-02  1.582E+00
   1    6    8     3     6    8.8877E+00  5.5980E-02   8.8317E+00  0.000E+00  0.000E+00  0.000E+00  1.06158E+03  1.036E+00  6.145E+00  1.844E-02  1.518E+00
   1    5   10     4     1    1.0000E+01  9.0919E-02   9.9091E+00  0.000E+00  0.000E+00  0.000E+00  1.07836E+03  6.368E-01  1.000E+01  2.500E-02  1.212E+00
   1    5    9     4     2    9.9091E+00  1.8158E-01   9.7275E+00  0.000E+00  0.000E+00  0.000E+00  1.07154E+03  6.315E-01  1.000E+01  5.000E-02  1.211E+00
   1    6    8     4     3    9.7275E+00  1.2689E-01   9.6006E+00  0.000E+00  0.000E+00  0.000E+00  1.06381E+03  6.256E-01  1.000E+01  3.500E-02  1.209E+00
   1    6    8     5     1    1.8432E+01  3.3262E-09   1.8432E+01  0.000E+00  0.000E+00  0.000E+00  1.05883E+03  8.293E-01  2.172E+01  8.686E-10  1.276E+00
   1    7    7     5     2    1.8432E+01  4.1514E-09   1.8432E+01  0.000E+00  0.000E+00  0.000E+00  1.05433E+03  8.286E-01  2.169E+01  1.084E-09  1.276E+00
   1    8    7     5     3    1.8432E+01  2.9126E-09   1.8432E+01  0.000E+00  0.000E+00  0.000E+00  1.05008E+03  8.296E-01  2.173E+01  7.606E-10  1.277E+00
   1    8    6     5     4    1.8432E+01  2.0836E-09   1.8432E+01  0.000E+00  0.000E+00  0.000E+00  1.04708E+03  8.303E-01  2.176E+01  5.440E-10  1.277E+00
   1    9    6     6     1    3.2203E+01  2.6507E-01   3.1938E+01  0.000E+00  0.000E+00  0.000E+00  1.04415E+03  1.418E+00  1.200E+01  6.000E-02  1.473E+00
   1   10    7     6     2    3.1938E+01  2.6465E-01   3.1673E+01  0.000E+00  0.000E+00  0.000E+00  1.03959E+03  1.411E+00  1.200E+01  6.000E-02  1.470E+00
   1   11    7     6     3    3.1673E+01  2.6423E-01   3.1409E+01  0.000E+00  0.000E+00  0.000E+00  1.03504E+03  1.404E+00  1.200E+01  6.000E-02  1.468E+00
   1   12    7     6     4    3.1409E+01  2.6380E-01   3.1145E+01  0.000E+00  0.000E+00  0.000E+00  1.03049E+03  1.397E+00  1.200E+01  6.000E-02  1.466E+00
   1   13    7     6     5    3.1145E+01  1.0540E-01   3.1040E+01  0.000E+00  0.000E+00  0.000E+00  1.02730E+03  1.392E+00  1.200E+01  2.400E-02  1.464E+00
   1   14    9     7     1    1.5000E+02  2.9539E-14   1.5000E+02  0.000E+00  0.000E+00  0.000E+00  1.03986E+03  2.283E+00  5.528E+01  5.591E-15  1.761E+00
   1   13    8     7     2    1.5000E+02  3.2486E-13   1.5000E+02  0.000E+00  0.000E+00  0.000E+00  1.03478E+03  2.283E+00  5.527E+01  6.150E-14  1.761E+00
   1   13    7     7     3    1.5000E+02  2.9539E-14   1.5000E+02  0.000E+00  0.000E+00  0.000E+00  1.02970E+03  2.283E+00  5.528E+01  5.591E-15  1.761E+00
   1   13    6     8     1    1.8104E+02  0.0000E+00   1.8104E+02  0.000E+00  0.000E+00  0.000E+00  1.02490E+03  3.023E+00  4.383E+01  0.000E+00  2.008E+00
   1   13    5     8     2    1.8104E+02  2.6787E-12   1.8104E+02  0.000E+00  0.000E+00  0.000E+00  1.01864E+03  3.014E+00  4.371E+01  4.454E-13  2.005E+00
   1   13    4     8     3    1.8104E+02  2.6787E-12   1.8104E+02  0.000E+00  0.000E+00  0.000E+00  1.01239E+03  3.014E+00  4.371E+01  4.454E-13  2.005E+00
   1   13    3     8     4    1.8104E+02  2.6787E-12   1.8104E+02  0.000E+00  0.000E+00  0.000E+00  1.00614E+03  3.014E+00  4.371E+01  4.454E-13  2.005E+00
   1   13    2     8     5    1.8104E+02  2.6787E-12   1.8104E+02  0.000E+00  0.000E+00  0.000E+00  9.99889E+02  3.014E+00  4.371E+01  4.454E-13  2.005E+00
   1   13    1     8     6    1.8104E+02  1.6099E-08   1.8104E+02  0.000E+00  0.000E+00  0.000E+00  9.94893E+02  3.018E+00  4.376E+01  2.675E-09  2.006E+00



 UBDSV3 SAVING "     NETRECHARGE" ON UNIT 100 AT TIME STEP  5, STRESS PERIOD   4
 UBDSV3 SAVING "    NETDISCHARGE" ON UNIT 101 AT TIME STEP  5, STRESS PERIOD   4
 UBDSV3 SAVING "           GW ET" ON UNIT  61 AT TIME STEP  5, STRESS PERIOD   4
 UBDSV3 SAVING "    UZF RECHARGE" ON UNIT  61 AT TIME STEP  5, STRESS PERIOD   4
 UBDSV3 SAVING " SURFACE LEAKAGE" ON UNIT  61 AT TIME STEP  5, STRESS PERIOD   4
 UBDSV3 SAVING "       HORT+DUNN" ON UNIT  61 AT TIME STEP  5, STRESS PERIOD   4
 UBDSV3 SAVING "  STORAGE CHANGE" ON UNIT  61 AT TIME STEP  5, STRESS PERIOD   4


UNSATURATED ZONE PACKAGE VOLUMETRIC BUDGET FOR  TIME STEP     5 STRESS PERIOD    4
  ------------------------------------------------------------------------------



     CUMULATIVE VOLUMES      L**3       RATES FOR THIS TIME STEP      L**3/T
     ------------------                 ------------------------

           IN:                                      IN:
           ---                                      ---
        INFILTRATION =    24328015.9170          INFILTRATION =           2.9000

          OUT:                                     OUT:
          ----                                     ----
              UZF ET =     2789021.7014                UZF ET =           0.8631
        UZF RECHARGE =     7621246.6355          UZF RECHARGE =       0.0000E+00

            IN - OUT =    13917747.5801              IN - OUT =           2.0369

          STORAGE:                                 STORAGE:
          --------                                 --------
      STORAGE CHANGE =    13917747.5538        STORAGE CHANGE =           2.0369

 PERCENT DISCREPANCY IS DIFFERENCE BETWEEN IN-OUT MINUS CHANGE IN STORAGE
 DIVIDED BY THE AVERAGE OF IN AND OUT TIMES 100

 PERCENT DISCREPANCY =           0.00     PERCENT DISCREPANCY =           0.00






1
  VOLUMETRIC BUDGET FOR ENTIRE MODEL AT END OF TIME STEP    5, STRESS PERIOD   4
  ------------------------------------------------------------------------------

     CUMULATIVE VOLUMES      L**3       RATES FOR THIS TIME STEP      L**3/T
     ------------------                 ------------------------

           IN:                                      IN:
           ---                                      ---
             STORAGE =   189537584.0000               STORAGE =          32.9101
       CONSTANT HEAD =           0.0000         CONSTANT HEAD =           0.0000
               WELLS =           0.0000                 WELLS =           0.0000
     HEAD DEP BOUNDS =    26226838.0000       HEAD DEP BOUNDS =           3.1278
      STREAM LEAKAGE =    33329714.0000        STREAM LEAKAGE =           3.9604
        UZF RECHARGE =     7621252.0000          UZF RECHARGE =           0.0000
               GW ET =           0.0000                 GW ET =           0.0000
     SURFACE LEAKAGE =           0.0000       SURFACE LEAKAGE =           0.0000

            TOTAL IN =   256715392.0000              TOTAL IN =          39.9983

          OUT:                                     OUT:
          ----                                     ----
             STORAGE =        3107.9111               STORAGE =           0.0000
       CONSTANT HEAD =           0.0000         CONSTANT HEAD =           0.0000
               WELLS =   256718880.0000                 WELLS =          40.0000
     HEAD DEP BOUNDS =           0.0000       HEAD DEP BOUNDS =           0.0000
      STREAM LEAKAGE =           0.0000        STREAM LEAKAGE =           0.0000
        UZF RECHARGE =           0.0000          UZF RECHARGE =           0.0000
               GW ET =           0.0000                 GW ET =           0.0000
     SURFACE LEAKAGE =           0.0000       SURFACE LEAKAGE =           0.0000

           TOTAL OUT =   256721984.0000             TOTAL OUT =          40.0000

            IN - OUT =       -6592.0000              IN - OUT =      -1.6632E-03

 PERCENT DISCREPANCY =          -0.00     PERCENT DISCREPANCY =          -0.00






         TIME SUMMARY AT END OF TIME STEP    5 IN STRESS PERIOD    4
                    SECONDS     MINUTES      HOURS       DAYS        YEARS
                    -----------------------------------------------------------
   TIME STEP LENGTH 1.21100E+05  2018.3      33.639      1.4016     3.83743E-03
 STRESS PERIOD TIME 5.04972E+05  8416.2      140.27      5.8446     1.60016E-02
         TOTAL TIME 8.38897E+06 1.39816E+05  2330.3      97.095     0.26583    
1
 
 SOLVING FOR HEAD 
                                                   Max.-Head-Change                         Max.-Flux-Residual
  Residual-Control   Outer-Iter.   Inner-Iter.     Column Row Layer    Maximum-Head-Change  Column Row Layer    Maximum-Flux-Residual          L2-NORM 
          0                 1           2             4    8     1      -0.6390647591E-01       4    8    1        -0.2201964264E+01      0.6233758133E+01
          0                 2           2             4    8     1       0.6332469058E-02       4    8    1         0.2201928993E+00      0.6233716253E+00
          0                 3           2             4    8     1      -0.5647467448E-03       4    8    1        -0.1981739802E-01      0.5610349436E-01
          0                 4           1             4    8     1       0.4482573892E-04       4    8    1         0.1587373723E-02      0.4493890724E-02

    ------------------------------------------------
       NWT REQUIRED            4 OUTER ITERATIONS 
       AND A TOTAL OF          7 INNER ITERATIONS.
    ------------------------------------------------

 NO OUTPUT CONTROL FOR STRESS PERIOD    4   TIME STEP    6
 
 SOLVING FOR HEAD 
                                                   Max.-Head-Change                         Max.-Flux-Residual
  Residual-Control   Outer-Iter.   Inner-Iter.     Column Row Layer    Maximum-Head-Change  Column Row Layer    Maximum-Flux-Residual          L2-NORM 
          0                 1           2             4    8     1      -0.6966671674E-01       4    8    1        -0.2183949372E+01      0.6198035780E+01
          0                 2           2             4    8     1       0.6903233368E-02       4    8    1         0.2183908108E+00      0.6197987881E+00
          0                 3           2             4    8     1      -0.6156492091E-03       4    8    1        -0.1965521594E-01      0.5578194489E-01
          0                 4           1             4    8     1       0.4886602708E-04       4    8    1         0.1574382865E-02      0.4468134542E-02

    ------------------------------------------------
       NWT REQUIRED            4 OUTER ITERATIONS 
       AND A TOTAL OF          7 INNER ITERATIONS.
    ------------------------------------------------

 NO OUTPUT CONTROL FOR STRESS PERIOD    4   TIME STEP    7
 
 SOLVING FOR HEAD 
                                                   Max.-Head-Change                         Max.-Flux-Residual
  Residual-Control   Outer-Iter.   Inner-Iter.     Column Row Layer    Maximum-Head-Change  Column Row Layer    Maximum-Flux-Residual          L2-NORM 
          0                 1           2             4    8     1      -0.7588075611E-01       4    8    1        -0.2164367952E+01      0.6159689733E+01
          0                 2           2             4    8     1       0.7518958479E-02       4    8    1         0.2164319686E+00      0.6159634959E+00
          0                 3           2             4    8     1      -0.6705614577E-03       4    8    1        -0.1947892698E-01      0.5543677529E-01
          0                 4           1             4    8     1       0.5322458457E-04       4    8    1         0.1560262060E-02      0.4440486400E-02

    ------------------------------------------------
       NWT REQUIRED            4 OUTER ITERATIONS 
       AND A TOTAL OF          7 INNER ITERATIONS.
    ------------------------------------------------

 NO OUTPUT CONTROL FOR STRESS PERIOD    4   TIME STEP    8
 
 SOLVING FOR HEAD 
                                                   Max.-Head-Change                         Max.-Flux-Residual
  Residual-Control   Outer-Iter.   Inner-Iter.     Column Row Layer    Maximum-Head-Change  Column Row Layer    Maximum-Flux-Residual          L2-NORM 
          0                 1           2             4    8     1      -0.8257160020E-01       4    8    1        -0.2143109580E+01      0.6118626567E+01
          0                 2           2             4    8     1       0.8181922354E-02       4    8    1         0.2143053160E+00      0.6118563957E+00
          0                 3           2             4    8     1      -0.7296866640E-03       4    8    1        -0.1928753622E-01      0.5506714392E-01
          0                 4           1             4    8     1       0.5791753774E-04       4    8    1         0.1544931601E-02      0.4410878860E-02

    ------------------------------------------------
       NWT REQUIRED            4 OUTER ITERATIONS 
       AND A TOTAL OF          7 INNER ITERATIONS.
    ------------------------------------------------

 NO OUTPUT CONTROL FOR STRESS PERIOD    4   TIME STEP    9
 
 SOLVING FOR HEAD 
                                                   Max.-Head-Change                         Max.-Flux-Residual
  Residual-Control   Outer-Iter.   Inner-Iter.     Column Row Layer    Maximum-Head-Change  Column Row Layer    Maximum-Flux-Residual          L2-NORM 
          0                 1           2             4    8     1      -0.8976132931E-01       4    8    1        -0.2120073548E+01      0.6074746291E+01
          0                 2           2             4    8     1       0.8894310787E-02       4    8    1         0.2120007655E+00      0.6074674777E+00
          0                 3           2             4    8     1      -0.7932197831E-03       4    8    1        -0.1908013596E-01      0.5467214999E-01
          0                 4           1             4    8     1       0.6296035927E-04       4    8    1         0.1528318763E-02      0.4379239772E-02

    ------------------------------------------------
       NWT REQUIRED            4 OUTER ITERATIONS 
       AND A TOTAL OF          7 INNER ITERATIONS.
    ------------------------------------------------

 OUTPUT CONTROL FOR STRESS PERIOD    4   TIME STEP   10
    PRINT BUDGET
    SAVE BUDGET

            WELLS   PERIOD    4   STEP  10
 WELL      1   LAYER   1   ROW     6   COL     4   RATE    -4.00000    
 WELL      2   LAYER   1   ROW     6   COL     5   RATE    -4.00000    
 WELL      3   LAYER   1   ROW     7   COL     4   RATE    -4.00000    
 WELL      4   LAYER   1   ROW     7   COL     5   RATE    -4.00000    
 WELL      5   LAYER   1   ROW     8   COL     4   RATE    -4.00000    
 WELL      6   LAYER   1   ROW     8   COL     5   RATE    -4.00000    
 WELL      7   LAYER   1   ROW     9   COL     4   RATE    -4.00000    
 WELL      8   LAYER   1   ROW     9   COL     5   RATE    -4.00000    
 WELL      9   LAYER   1   ROW    10   COL     4   RATE    -4.00000    
 WELL     10   LAYER   1   ROW    10   COL     5   RATE    -4.00000    

  HEAD DEP BOUNDS   PERIOD    4   STEP  10
 BOUNDARY      1   LAYER   1   ROW    13   COL     1   RATE    0.759026    
 BOUNDARY      2   LAYER   1   ROW    14   COL     9   RATE     2.36906    



 STREAM LISTING     PERIOD      4   STEP       10

 LAYER ROW COL. STREAM  RCH.  FLOW INTO     FLOW TO   FLOW OUT OF   OVRLND.     DIRECT     STREAM       STREAM     STREAM     STREAM   STREAMBED  STREAMBED
                SEG.NO.  NO.  STRM. RCH.    AQUIFER    STRM. RCH.    RUNOFF     PRECIP       ET          HEAD       DEPTH      WIDTH   CONDCTNC.   GRADIENT

   1    1    1     1     1    2.5000E+01  2.4515E-09   2.5000E+01  0.000E+00  0.000E+00  0.000E+00  1.09423E+03  1.178E+00  1.304E+01  5.867E-10  1.393E+00
   1    2    2     1     2    2.5000E+01  3.8085E-09   2.5000E+01  0.000E+00  0.000E+00  0.000E+00  1.08924E+03  1.177E+00  1.302E+01  9.117E-10  1.392E+00
   1    3    3     1     3    2.5000E+01  3.2661E-09   2.5000E+01  0.000E+00  0.000E+00  0.000E+00  1.08360E+03  1.178E+00  1.303E+01  7.818E-10  1.393E+00
   1    3    4     1     4    2.5000E+01  3.0219E-09   2.5000E+01  0.000E+00  0.000E+00  0.000E+00  1.07859E+03  1.178E+00  1.303E+01  7.233E-10  1.393E+00
   1    4    5     2     1    1.5000E+01  3.0290E-01   1.4697E+01  0.000E+00  0.000E+00  0.000E+00  1.07282E+03  8.834E-01  1.200E+01  7.800E-02  1.294E+00
   1    5    6     2     2    1.4697E+01  2.3243E-01   1.4465E+01  0.000E+00  0.000E+00  0.000E+00  1.06738E+03  8.738E-01  1.200E+01  6.000E-02  1.291E+00
   1    6    6     2     3    1.4465E+01  2.3193E-01   1.4233E+01  0.000E+00  0.000E+00  0.000E+00  1.06266E+03  8.654E-01  1.200E+01  6.000E-02  1.288E+00
   1    7    6     2     4    1.4233E+01  2.3142E-01   1.4001E+01  0.000E+00  0.000E+00  0.000E+00  1.05793E+03  8.570E-01  1.200E+01  6.000E-02  1.286E+00
   1    8    6     2     5    1.4001E+01  2.3091E-01   1.3770E+01  0.000E+00  0.000E+00  0.000E+00  1.05321E+03  8.486E-01  1.200E+01  6.000E-02  1.283E+00
   1    3    5     3     1    1.0000E+01  2.8252E-01   9.7175E+00  0.000E+00  0.000E+00  0.000E+00  1.07555E+03  1.909E+00  9.636E+00  7.227E-02  1.955E+00
   1    3    6     3     2    9.7175E+00  2.4905E-01   9.4684E+00  0.000E+00  0.000E+00  0.000E+00  1.07264E+03  1.727E+00  8.909E+00  6.682E-02  1.864E+00
   1    3    7     3     3    9.4684E+00  1.9718E-01   9.2712E+00  0.000E+00  0.000E+00  0.000E+00  1.06987E+03  1.555E+00  8.218E+00  5.547E-02  1.777E+00
   1    4    8     3     4    9.2712E+00  2.2567E-01   9.0456E+00  0.000E+00  0.000E+00  0.000E+00  1.06682E+03  1.364E+00  7.455E+00  6.709E-02  1.682E+00
   1    5    8     3     5    9.0456E+00  1.5790E-01   8.8877E+00  0.000E+00  0.000E+00  0.000E+00  1.06362E+03  1.164E+00  6.655E+00  4.991E-02  1.582E+00
   1    6    8     3     6    8.8877E+00  5.5980E-02   8.8317E+00  0.000E+00  0.000E+00  0.000E+00  1.06158E+03  1.036E+00  6.145E+00  1.844E-02  1.518E+00
   1    5   10     4     1    1.0000E+01  9.0919E-02   9.9091E+00  0.000E+00  0.000E+00  0.000E+00  1.07836E+03  6.368E-01  1.000E+01  2.500E-02  1.212E+00
   1    5    9     4     2    9.9091E+00  1.8158E-01   9.7275E+00  0.000E+00  0.000E+00  0.000E+00  1.07154E+03  6.315E-01  1.000E+01  5.000E-02  1.211E+00
   1    6    8     4     3    9.7275E+00  1.2689E-01   9.6006E+00  0.000E+00  0.000E+00  0.000E+00  1.06381E+03  6.256E-01  1.000E+01  3.500E-02  1.209E+00
   1    6    8     5     1    1.8432E+01  3.3262E-09   1.8432E+01  0.000E+00  0.000E+00  0.000E+00  1.05883E+03  8.293E-01  2.172E+01  8.686E-10  1.276E+00
   1    7    7     5     2    1.8432E+01  4.1514E-09   1.8432E+01  0.000E+00  0.000E+00  0.000E+00  1.05433E+03  8.286E-01  2.169E+01  1.084E-09  1.276E+00
   1    8    7     5     3    1.8432E+01  2.9126E-09   1.8432E+01  0.000E+00  0.000E+00  0.000E+00  1.05008E+03  8.296E-01  2.173E+01  7.606E-10  1.277E+00
   1    8    6     5     4    1.8432E+01  2.0836E-09   1.8432E+01  0.000E+00  0.000E+00  0.000E+00  1.04708E+03  8.303E-01  2.176E+01  5.440E-10  1.277E+00
   1    9    6     6     1    3.2203E+01  2.6507E-01   3.1938E+01  0.000E+00  0.000E+00  0.000E+00  1.04415E+03  1.418E+00  1.200E+01  6.000E-02  1.473E+00
   1   10    7     6     2    3.1938E+01  2.6465E-01   3.1673E+01  0.000E+00  0.000E+00  0.000E+00  1.03959E+03  1.411E+00  1.200E+01  6.000E-02  1.470E+00
   1   11    7     6     3    3.1673E+01  2.6423E-01   3.1409E+01  0.000E+00  0.000E+00  0.000E+00  1.03504E+03  1.404E+00  1.200E+01  6.000E-02  1.468E+00
   1   12    7     6     4    3.1409E+01  2.6380E-01   3.1145E+01  0.000E+00  0.000E+00  0.000E+00  1.03049E+03  1.397E+00  1.200E+01  6.000E-02  1.466E+00
   1   13    7     6     5    3.1145E+01  1.0540E-01   3.1040E+01  0.000E+00  0.000E+00  0.000E+00  1.02730E+03  1.392E+00  1.200E+01  2.400E-02  1.464E+00
   1   14    9     7     1    1.5000E+02  2.9539E-14   1.5000E+02  0.000E+00  0.000E+00  0.000E+00  1.03986E+03  2.283E+00  5.528E+01  5.591E-15  1.761E+00
   1   13    8     7     2    1.5000E+02  3.2486E-13   1.5000E+02  0.000E+00  0.000E+00  0.000E+00  1.03478E+03  2.283E+00  5.527E+01  6.150E-14  1.761E+00
   1   13    7     7     3    1.5000E+02  2.9539E-14   1.5000E+02  0.000E+00  0.000E+00  0.000E+00  1.02970E+03  2.283E+00  5.528E+01  5.591E-15  1.761E+00
   1   13    6     8     1    1.8104E+02  0.0000E+00   1.8104E+02  0.000E+00  0.000E+00  0.000E+00  1.02490E+03  3.023E+00  4.383E+01  0.000E+00  2.008E+00
   1   13    5     8     2    1.8104E+02  2.6787E-12   1.8104E+02  0.000E+00  0.000E+00  0.000E+00  1.01864E+03  3.014E+00  4.371E+01  4.454E-13  2.005E+00
   1   13    4     8     3    1.8104E+02  2.6787E-12   1.8104E+02  0.000E+00  0.000E+00  0.000E+00  1.01239E+03  3.014E+00  4.371E+01  4.454E-13  2.005E+00
   1   13    3     8     4    1.8104E+02  2.6787E-12   1.8104E+02  0.000E+00  0.000E+00  0.000E+00  1.00614E+03  3.014E+00  4.371E+01  4.454E-13  2.005E+00
   1   13    2     8     5    1.8104E+02  2.6787E-12   1.8104E+02  0.000E+00  0.000E+00  0.000E+00  9.99889E+02  3.014E+00  4.371E+01  4.454E-13  2.005E+00
   1   13    1     8     6    1.8104E+02  1.6099E-08   1.8104E+02  0.000E+00  0.000E+00  0.000E+00  9.94893E+02  3.018E+00  4.376E+01  2.675E-09  2.006E+00



 UBDSV3 SAVING "     NETRECHARGE" ON UNIT 100 AT TIME STEP 10, STRESS PERIOD   4
 UBDSV3 SAVING "    NETDISCHARGE" ON UNIT 101 AT TIME STEP 10, STRESS PERIOD   4
 UBDSV3 SAVING "           GW ET" ON UNIT  61 AT TIME STEP 10, STRESS PERIOD   4
 UBDSV3 SAVING "    UZF RECHARGE" ON UNIT  61 AT TIME STEP 10, STRESS PERIOD   4
 UBDSV3 SAVING " SURFACE LEAKAGE" ON UNIT  61 AT TIME STEP 10, STRESS PERIOD   4
 UBDSV3 SAVING "       HORT+DUNN" ON UNIT  61 AT TIME STEP 10, STRESS PERIOD   4
 UBDSV3 SAVING "  STORAGE CHANGE" ON UNIT  61 AT TIME STEP 10, STRESS PERIOD   4


UNSATURATED ZONE PACKAGE VOLUMETRIC BUDGET FOR  TIME STEP    10 STRESS PERIOD    4
  ------------------------------------------------------------------------------



     CUMULATIVE VOLUMES      L**3       RATES FOR THIS TIME STEP      L**3/T
     ------------------                 ------------------------

           IN:                                      IN:
           ---                                      ---
        INFILTRATION =    26686475.1846          INFILTRATION =           2.9000

          OUT:                                     OUT:
          ----                                     ----
              UZF ET =     3530287.4834                UZF ET =           0.9409
        UZF RECHARGE =     7621246.6355          UZF RECHARGE =       0.0000E+00

            IN - OUT =    15534941.0657              IN - OUT =           1.9591

          STORAGE:                                 STORAGE:
          --------                                 --------
      STORAGE CHANGE =    15534941.0047        STORAGE CHANGE =           1.9591

 PERCENT DISCREPANCY IS DIFFERENCE BETWEEN IN-OUT MINUS CHANGE IN STORAGE
 DIVIDED BY THE AVERAGE OF IN AND OUT TIMES 100

 PERCENT DISCREPANCY =           0.00     PERCENT DISCREPANCY =           0.00






1
  VOLUMETRIC BUDGET FOR ENTIRE MODEL AT END OF TIME STEP   10, STRESS PERIOD   4
  ------------------------------------------------------------------------------

     CUMULATIVE VOLUMES      L**3       RATES FOR THIS TIME STEP      L**3/T
     ------------------                 ------------------------

           IN:                                      IN:
           ---                                      ---
             STORAGE =   216302000.0000               STORAGE =          32.9098
       CONSTANT HEAD =           0.0000         CONSTANT HEAD =           0.0000
               WELLS =           0.0000                 WELLS =           0.0000
     HEAD DEP BOUNDS =    28770686.0000       HEAD DEP BOUNDS =           3.1281
      STREAM LEAKAGE =    36550584.0000        STREAM LEAKAGE =           3.9604
        UZF RECHARGE =     7621252.0000          UZF RECHARGE =           0.0000
               GW ET =           0.0000                 GW ET =           0.0000
     SURFACE LEAKAGE =           0.0000       SURFACE LEAKAGE =           0.0000

            TOTAL IN =   289244512.0000              TOTAL IN =          39.9983

          OUT:                                     OUT:
          ----                                     ----
             STORAGE =        3107.9111               STORAGE =           0.0000
       CONSTANT HEAD =           0.0000         CONSTANT HEAD =           0.0000
               WELLS =   289249344.0000                 WELLS =          40.0000
     HEAD DEP BOUNDS =           0.0000       HEAD DEP BOUNDS =           0.0000
      STREAM LEAKAGE =           0.0000        STREAM LEAKAGE =           0.0000
        UZF RECHARGE =           0.0000          UZF RECHARGE =           0.0000
               GW ET =           0.0000                 GW ET =           0.0000
     SURFACE LEAKAGE =           0.0000       SURFACE LEAKAGE =           0.0000

           TOTAL OUT =   289252448.0000             TOTAL OUT =          40.0000

            IN - OUT =       -7936.0000              IN - OUT =      -1.6632E-03

 PERCENT DISCREPANCY =          -0.00     PERCENT DISCREPANCY =          -0.00






         TIME SUMMARY AT END OF TIME STEP   10 IN STRESS PERIOD    4
                    SECONDS     MINUTES      HOURS       DAYS        YEARS
                    -----------------------------------------------------------
   TIME STEP LENGTH 1.95033E+05  3250.6      54.176      2.2573     6.18023E-03
 STRESS PERIOD TIME 1.31823E+06  21971.      366.18      15.257     4.17723E-02
         TOTAL TIME 9.20223E+06 1.53371E+05  2556.2      106.51     0.29160    
1
 
 SOLVING FOR HEAD 
                                                   Max.-Head-Change                         Max.-Flux-Residual
  Residual-Control   Outer-Iter.   Inner-Iter.     Column Row Layer    Maximum-Head-Change  Column Row Layer    Maximum-Flux-Residual          L2-NORM 
          0                 1           2             4    8     1      -0.9747022711E-01       4    8    1        -0.2095157987E+01      0.6027967208E+01
          0                 2           2             4    8     1       0.9658131045E-02       4    8    1         0.2095081134E+00      0.6027885607E+00
          0                 3           2             4    8     1      -0.8613398548E-03       4    8    1        -0.1885580800E-01      0.5425105732E-01
          0                 4           1             4    8     1       0.6836726102E-04       4    8    1         0.1510350001E-02      0.4345510154E-02

    ------------------------------------------------
       NWT REQUIRED            4 OUTER ITERATIONS 
       AND A TOTAL OF          7 INNER ITERATIONS.
    ------------------------------------------------

 NO OUTPUT CONTROL FOR STRESS PERIOD    4   TIME STEP   11
 
 SOLVING FOR HEAD 
                                                   Max.-Head-Change                         Max.-Flux-Residual
  Residual-Control   Outer-Iter.   Inner-Iter.     Column Row Layer    Maximum-Head-Change  Column Row Layer    Maximum-Flux-Residual          L2-NORM 
          0                 1           2             4    8     1      -0.1057164618E+00       4    8    1        -0.2068268336E+01      0.5978228692E+01
          0                 2           2             4    8     1       0.1047518019E-01       4    8    1         0.2068178856E+00      0.5978135709E+00
          0                 3           2             4    8     1      -0.9342071786E-03       4    8    1        -0.1861369988E-01      0.5380331936E-01
          0                 4           1             4    8     1       0.7415096610E-04       4    8    1         0.1490957039E-02      0.4309646248E-02

    ------------------------------------------------
       NWT REQUIRED            4 OUTER ITERATIONS 
       AND A TOTAL OF          7 INNER ITERATIONS.
    ------------------------------------------------

 NO OUTPUT CONTROL FOR STRESS PERIOD    4   TIME STEP   12
 
 SOLVING FOR HEAD 
                                                   Max.-Head-Change                         Max.-Flux-Residual
  Residual-Control   Outer-Iter.   Inner-Iter.     Column Row Layer    Maximum-Head-Change  Column Row Layer    Maximum-Flux-Residual          L2-NORM 
          0                 1           2             4    8     1      -0.1145153953E+00       4    8    1        -0.2039316146E+01      0.5925489386E+01
          0                 2           2             4    8     1       0.1134697653E-01       4    8    1         0.2039212190E+00      0.5925384158E+00
          0                 3           2             4    8     1      -0.1011957179E-02       4    8    1        -0.1835301405E-01      0.5332845091E-01
          0                 4           1             4    8     1       0.8032222265E-04       4    8    1         0.1470075991E-02      0.4271609182E-02

    ------------------------------------------------
       NWT REQUIRED            4 OUTER ITERATIONS 
       AND A TOTAL OF          7 INNER ITERATIONS.
    ------------------------------------------------

 NO OUTPUT CONTROL FOR STRESS PERIOD    4   TIME STEP   13
 
 SOLVING FOR HEAD 
                                                   Max.-Head-Change                         Max.-Flux-Residual
  Residual-Control   Outer-Iter.   Inner-Iter.     Column Row Layer    Maximum-Head-Change  Column Row Layer    Maximum-Flux-Residual          L2-NORM 
          0                 1           2             4    8     1      -0.1238794195E+00       4    8    1        -0.2008230432E+01      0.5869731482E+01
          0                 2           2             4    8     1       0.1227474383E-01       4    8    1         0.2008109973E+00      0.5869634542E+00
          0                 3           2             4    8     1      -0.1094699099E-02       4    8    1        -0.1807311026E-01      0.5282683532E-01
          0                 4           1             4    8     1       0.8688970175E-04       4    8    1         0.1447655556E-02      0.4231429645E-02

    ------------------------------------------------
       NWT REQUIRED            4 OUTER ITERATIONS 
       AND A TOTAL OF          7 INNER ITERATIONS.
    ------------------------------------------------

 NO OUTPUT CONTROL FOR STRESS PERIOD    4   TIME STEP   14
 
 SOLVING FOR HEAD 
                                                   Max.-Head-Change                         Max.-Flux-Residual
  Residual-Control   Outer-Iter.   Inner-Iter.     Column Row Layer    Maximum-Head-Change  Column Row Layer    Maximum-Flux-Residual          L2-NORM 
          0                 1           2             4    8     1      -0.1338169614E+00       4    8    1        -0.1974949690E+01      0.5810960824E+01
          0                 2           2             4    8     1       0.1325931033E-01       4    8    1         0.1974810544E+00      0.5810824847E+00
          0                 3           2             4    8     1      -0.1182506800E-02       4    8    1        -0.1777343371E-01      0.5229756362E-01
          0                 4           1             4    8     1       0.9385926505E-04       4    8    1         0.1423651314E-02      0.4189034845E-02

    ------------------------------------------------
       NWT REQUIRED            4 OUTER ITERATIONS 
       AND A TOTAL OF          7 INNER ITERATIONS.
    ------------------------------------------------

 OUTPUT CONTROL FOR STRESS PERIOD    4   TIME STEP   15
    PRINT BUDGET
    PRINT HEAD FOR ALL LAYERS
    SAVE HEAD FOR ALL LAYERS
    SAVE BUDGET

            WELLS   PERIOD    4   STEP  15
 WELL      1   LAYER   1   ROW     6   COL     4   RATE    -4.00000    
 WELL      2   LAYER   1   ROW     6   COL     5   RATE    -4.00000    
 WELL      3   LAYER   1   ROW     7   COL     4   RATE    -4.00000    
 WELL      4   LAYER   1   ROW     7   COL     5   RATE    -4.00000    
 WELL      5   LAYER   1   ROW     8   COL     4   RATE    -4.00000    
 WELL      6   LAYER   1   ROW     8   COL     5   RATE    -4.00000    
 WELL      7   LAYER   1   ROW     9   COL     4   RATE    -4.00000    
 WELL      8   LAYER   1   ROW     9   COL     5   RATE    -4.00000    
 WELL      9   LAYER   1   ROW    10   COL     4   RATE    -4.00000    
 WELL     10   LAYER   1   ROW    10   COL     5   RATE    -4.00000    

  HEAD DEP BOUNDS   PERIOD    4   STEP  15
 BOUNDARY      1   LAYER   1   ROW    13   COL     1   RATE    0.759276    
 BOUNDARY      2   LAYER   1   ROW    14   COL     9   RATE     2.36931    



 STREAM LISTING     PERIOD      4   STEP       15

 LAYER ROW COL. STREAM  RCH.  FLOW INTO     FLOW TO   FLOW OUT OF   OVRLND.     DIRECT     STREAM       STREAM     STREAM     STREAM   STREAMBED  STREAMBED
                SEG.NO.  NO.  STRM. RCH.    AQUIFER    STRM. RCH.    RUNOFF     PRECIP       ET          HEAD       DEPTH      WIDTH   CONDCTNC.   GRADIENT

   1    1    1     1     1    2.5000E+01  2.4515E-09   2.5000E+01  0.000E+00  0.000E+00  0.000E+00  1.09423E+03  1.178E+00  1.304E+01  5.867E-10  1.393E+00
   1    2    2     1     2    2.5000E+01  3.8085E-09   2.5000E+01  0.000E+00  0.000E+00  0.000E+00  1.08924E+03  1.177E+00  1.302E+01  9.117E-10  1.392E+00
   1    3    3     1     3    2.5000E+01  3.2661E-09   2.5000E+01  0.000E+00  0.000E+00  0.000E+00  1.08360E+03  1.178E+00  1.303E+01  7.818E-10  1.393E+00
   1    3    4     1     4    2.5000E+01  3.0219E-09   2.5000E+01  0.000E+00  0.000E+00  0.000E+00  1.07859E+03  1.178E+00  1.303E+01  7.233E-10  1.393E+00
   1    4    5     2     1    1.5000E+01  3.0290E-01   1.4697E+01  0.000E+00  0.000E+00  0.000E+00  1.07282E+03  8.834E-01  1.200E+01  7.800E-02  1.294E+00
   1    5    6     2     2    1.4697E+01  2.3243E-01   1.4465E+01  0.000E+00  0.000E+00  0.000E+00  1.06738E+03  8.738E-01  1.200E+01  6.000E-02  1.291E+00
   1    6    6     2     3    1.4465E+01  2.3193E-01   1.4233E+01  0.000E+00  0.000E+00  0.000E+00  1.06266E+03  8.654E-01  1.200E+01  6.000E-02  1.288E+00
   1    7    6     2     4    1.4233E+01  2.3142E-01   1.4001E+01  0.000E+00  0.000E+00  0.000E+00  1.05793E+03  8.570E-01  1.200E+01  6.000E-02  1.286E+00
   1    8    6     2     5    1.4001E+01  2.3091E-01   1.3770E+01  0.000E+00  0.000E+00  0.000E+00  1.05321E+03  8.486E-01  1.200E+01  6.000E-02  1.283E+00
   1    3    5     3     1    1.0000E+01  2.8252E-01   9.7175E+00  0.000E+00  0.000E+00  0.000E+00  1.07555E+03  1.909E+00  9.636E+00  7.227E-02  1.955E+00
   1    3    6     3     2    9.7175E+00  2.4905E-01   9.4684E+00  0.000E+00  0.000E+00  0.000E+00  1.07264E+03  1.727E+00  8.909E+00  6.682E-02  1.864E+00
   1    3    7     3     3    9.4684E+00  1.9718E-01   9.2712E+00  0.000E+00  0.000E+00  0.000E+00  1.06987E+03  1.555E+00  8.218E+00  5.547E-02  1.777E+00
   1    4    8     3     4    9.2712E+00  2.2567E-01   9.0456E+00  0.000E+00  0.000E+00  0.000E+00  1.06682E+03  1.364E+00  7.455E+00  6.709E-02  1.682E+00
   1    5    8     3     5    9.0456E+00  1.5790E-01   8.8877E+00  0.000E+00  0.000E+00  0.000E+00  1.06362E+03  1.164E+00  6.655E+00  4.991E-02  1.582E+00
   1    6    8     3     6    8.8877E+00  5.5980E-02   8.8317E+00  0.000E+00  0.000E+00  0.000E+00  1.06158E+03  1.036E+00  6.145E+00  1.844E-02  1.518E+00
   1    5   10     4     1    1.0000E+01  9.0919E-02   9.9091E+00  0.000E+00  0.000E+00  0.000E+00  1.07836E+03  6.368E-01  1.000E+01  2.500E-02  1.212E+00
   1    5    9     4     2    9.9091E+00  1.8158E-01   9.7275E+00  0.000E+00  0.000E+00  0.000E+00  1.07154E+03  6.315E-01  1.000E+01  5.000E-02  1.211E+00
   1    6    8     4     3    9.7275E+00  1.2689E-01   9.6006E+00  0.000E+00  0.000E+00  0.000E+00  1.06381E+03  6.256E-01  1.000E+01  3.500E-02  1.209E+00
   1    6    8     5     1    1.8432E+01  3.3262E-09   1.8432E+01  0.000E+00  0.000E+00  0.000E+00  1.05883E+03  8.293E-01  2.172E+01  8.686E-10  1.276E+00
   1    7    7     5     2    1.8432E+01  4.1514E-09   1.8432E+01  0.000E+00  0.000E+00  0.000E+00  1.05433E+03  8.286E-01  2.169E+01  1.084E-09  1.276E+00
   1    8    7     5     3    1.8432E+01  2.9126E-09   1.8432E+01  0.000E+00  0.000E+00  0.000E+00  1.05008E+03  8.296E-01  2.173E+01  7.606E-10  1.277E+00
   1    8    6     5     4    1.8432E+01  2.0836E-09   1.8432E+01  0.000E+00  0.000E+00  0.000E+00  1.04708E+03  8.303E-01  2.176E+01  5.440E-10  1.277E+00
   1    9    6     6     1    3.2203E+01  2.6507E-01   3.1938E+01  0.000E+00  0.000E+00  0.000E+00  1.04415E+03  1.418E+00  1.200E+01  6.000E-02  1.473E+00
   1   10    7     6     2    3.1938E+01  2.6465E-01   3.1673E+01  0.000E+00  0.000E+00  0.000E+00  1.03959E+03  1.411E+00  1.200E+01  6.000E-02  1.470E+00
   1   11    7     6     3    3.1673E+01  2.6423E-01   3.1409E+01  0.000E+00  0.000E+00  0.000E+00  1.03504E+03  1.404E+00  1.200E+01  6.000E-02  1.468E+00
   1   12    7     6     4    3.1409E+01  2.6380E-01   3.1145E+01  0.000E+00  0.000E+00  0.000E+00  1.03049E+03  1.397E+00  1.200E+01  6.000E-02  1.466E+00
   1   13    7     6     5    3.1145E+01  1.0540E-01   3.1040E+01  0.000E+00  0.000E+00  0.000E+00  1.02730E+03  1.392E+00  1.200E+01  2.400E-02  1.464E+00
   1   14    9     7     1    1.5000E+02  2.9539E-14   1.5000E+02  0.000E+00  0.000E+00  0.000E+00  1.03986E+03  2.283E+00  5.528E+01  5.591E-15  1.761E+00
   1   13    8     7     2    1.5000E+02  3.2486E-13   1.5000E+02  0.000E+00  0.000E+00  0.000E+00  1.03478E+03  2.283E+00  5.527E+01  6.150E-14  1.761E+00
   1   13    7     7     3    1.5000E+02  2.9539E-14   1.5000E+02  0.000E+00  0.000E+00  0.000E+00  1.02970E+03  2.283E+00  5.528E+01  5.591E-15  1.761E+00
   1   13    6     8     1    1.8104E+02  0.0000E+00   1.8104E+02  0.000E+00  0.000E+00  0.000E+00  1.02490E+03  3.023E+00  4.383E+01  0.000E+00  2.008E+00
   1   13    5     8     2    1.8104E+02  2.6787E-12   1.8104E+02  0.000E+00  0.000E+00  0.000E+00  1.01864E+03  3.014E+00  4.371E+01  4.454E-13  2.005E+00
   1   13    4     8     3    1.8104E+02  2.6787E-12   1.8104E+02  0.000E+00  0.000E+00  0.000E+00  1.01239E+03  3.014E+00  4.371E+01  4.454E-13  2.005E+00
   1   13    3     8     4    1.8104E+02  2.6787E-12   1.8104E+02  0.000E+00  0.000E+00  0.000E+00  1.00614E+03  3.014E+00  4.371E+01  4.454E-13  2.005E+00
   1   13    2     8     5    1.8104E+02  2.6787E-12   1.8104E+02  0.000E+00  0.000E+00  0.000E+00  9.99889E+02  3.014E+00  4.371E+01  4.454E-13  2.005E+00
   1   13    1     8     6    1.8104E+02  1.6099E-08   1.8104E+02  0.000E+00  0.000E+00  0.000E+00  9.94893E+02  3.018E+00  4.376E+01  2.675E-09  2.006E+00



 UBDSV3 SAVING "     NETRECHARGE" ON UNIT 100 AT TIME STEP 15, STRESS PERIOD   4
 UBDSV3 SAVING "    NETDISCHARGE" ON UNIT 101 AT TIME STEP 15, STRESS PERIOD   4
 UBDSV3 SAVING "           GW ET" ON UNIT  61 AT TIME STEP 15, STRESS PERIOD   4
 UBDSV3 SAVING "    UZF RECHARGE" ON UNIT  61 AT TIME STEP 15, STRESS PERIOD   4
 UBDSV3 SAVING " SURFACE LEAKAGE" ON UNIT  61 AT TIME STEP 15, STRESS PERIOD   4
 UBDSV3 SAVING "       HORT+DUNN" ON UNIT  61 AT TIME STEP 15, STRESS PERIOD   4
 UBDSV3 SAVING "  STORAGE CHANGE" ON UNIT  61 AT TIME STEP 15, STRESS PERIOD   4


UNSATURATED ZONE PACKAGE VOLUMETRIC BUDGET FOR  TIME STEP    15 STRESS PERIOD    4
  ------------------------------------------------------------------------------



     CUMULATIVE VOLUMES      L**3       RATES FOR THIS TIME STEP      L**3/T
     ------------------                 ------------------------

           IN:                                      IN:
           ---                                      ---
        INFILTRATION =    30484797.5361          INFILTRATION =           2.9000

          OUT:                                     OUT:
          ----                                     ----
              UZF ET =     4852710.7927                UZF ET =           1.0526
        UZF RECHARGE =     7621246.6355          UZF RECHARGE =       0.0000E+00

            IN - OUT =    18010840.1079              IN - OUT =           1.8474

          STORAGE:                                 STORAGE:
          --------                                 --------
      STORAGE CHANGE =    18010840.1156        STORAGE CHANGE =           1.8474

 PERCENT DISCREPANCY IS DIFFERENCE BETWEEN IN-OUT MINUS CHANGE IN STORAGE
 DIVIDED BY THE AVERAGE OF IN AND OUT TIMES 100

 PERCENT DISCREPANCY =           0.00     PERCENT DISCREPANCY =           0.00






1
              HEAD IN LAYER   1 AT END OF TIME STEP  15 IN STRESS PERIOD    4
  ---------------------------------------------------------------------------

           1       2       3       4       5       6       7       8       9      10
 ...................................................................................
   1  1003.38 1000.50 6999.00 6999.00 6999.00 6999.00 6999.00 6999.00 6999.00 6999.00
   2  1001.00  958.88  958.30 6999.00 6999.00  964.49  964.97  965.35 6999.00 6999.00
   3  6999.00  958.04  957.48  957.32  958.32  959.71  960.89  961.68 6999.00 6999.00
   4   959.16  957.69  956.97  956.61  956.94  957.38  958.52  960.82  962.09 6999.00
   5   958.80  956.95  955.98  954.99  955.46  956.61  957.43  958.39  959.80  964.29
   6   958.43  956.37  954.60  951.75  952.52  955.55  956.92  957.84  959.12  972.28
   7   958.20  956.03  953.96  950.52  951.50  955.00  956.59  957.40  960.86 6999.00
   8  6999.00  956.07  954.03  950.32  951.41  954.96  956.58  957.74  962.42 6999.00
   9  6999.00  956.68  954.69  951.10  952.13  955.50  957.18  958.69  963.55 6999.00
  10  6999.00  957.90  956.05  952.97  953.74  956.62  958.23  959.96  963.84  967.41
  11  6999.00  959.71  958.34  956.92  957.27  958.51  959.85  961.83  965.97 6999.00
  12   966.02  961.71  959.94  959.09  959.23  960.11  961.51  964.78  970.92 6999.00
  13   968.02  962.92  960.91  960.19  960.31  961.33  963.58  967.96  976.64 6999.00
  14  6999.00  964.05  961.58  961.29  961.67  963.12  966.44  973.61  982.65 6999.00
  15  6999.00 6999.00  965.57  965.57  965.86  966.38 6999.00 6999.00 6999.00 6999.00

 HEAD WILL BE SAVED ON UNIT   58 AT END OF TIME STEP   15, STRESS PERIOD    4
1
  VOLUMETRIC BUDGET FOR ENTIRE MODEL AT END OF TIME STEP   15, STRESS PERIOD   4
  ------------------------------------------------------------------------------

     CUMULATIVE VOLUMES      L**3       RATES FOR THIS TIME STEP      L**3/T
     ------------------                 ------------------------

           IN:                                      IN:
           ---                                      ---
             STORAGE =   259405792.0000               STORAGE =          32.9093
       CONSTANT HEAD =           0.0000         CONSTANT HEAD =           0.0000
               WELLS =           0.0000                 WELLS =           0.0000
     HEAD DEP BOUNDS =    32868144.0000       HEAD DEP BOUNDS =           3.1286
      STREAM LEAKAGE =    41737824.0000        STREAM LEAKAGE =           3.9604
        UZF RECHARGE =     7621252.0000          UZF RECHARGE =           0.0000
               GW ET =           0.0000                 GW ET =           0.0000
     SURFACE LEAKAGE =           0.0000       SURFACE LEAKAGE =           0.0000

            TOTAL IN =   341633024.0000              TOTAL IN =          39.9983

          OUT:                                     OUT:
          ----                                     ----
             STORAGE =        3107.9111               STORAGE =           0.0000
       CONSTANT HEAD =           0.0000         CONSTANT HEAD =           0.0000
               WELLS =   341640000.0000                 WELLS =          40.0000
     HEAD DEP BOUNDS =           0.0000       HEAD DEP BOUNDS =           0.0000
      STREAM LEAKAGE =           0.0000        STREAM LEAKAGE =           0.0000
        UZF RECHARGE =           0.0000          UZF RECHARGE =           0.0000
               GW ET =           0.0000                 GW ET =           0.0000
     SURFACE LEAKAGE =           0.0000       SURFACE LEAKAGE =           0.0000

           TOTAL OUT =   341643104.0000             TOTAL OUT =          40.0000

            IN - OUT =      -10080.0000              IN - OUT =      -1.6632E-03

 PERCENT DISCREPANCY =          -0.00     PERCENT DISCREPANCY =          -0.00






         TIME SUMMARY AT END OF TIME STEP   15 IN STRESS PERIOD    4
                    SECONDS     MINUTES      HOURS       DAYS        YEARS
                    -----------------------------------------------------------
   TIME STEP LENGTH 3.14103E+05  5235.0      87.251      3.6354     9.95332E-03
 STRESS PERIOD TIME 2.62800E+06  43800.      730.00      30.417     8.32763E-02
         TOTAL TIME 1.05120E+07 1.75200E+05  2920.0      121.67     0.33311    
1
1
                            STRESS PERIOD NO.    5, LENGTH =   2628000.    
                            -----------------------------------------------

                              NUMBER OF TIME STEPS =    15

                               MULTIPLIER FOR DELT =     1.100

                            INITIAL TIME STEP SIZE =   82713.07    

 WELL NO.  LAYER   ROW   COL   STRESS RATE         
 --------------------------------------------------
      1      1      6      4      -3.000    
      2      1      6      5      -3.000    
      3      1      7      4      -3.000    
      4      1      7      5      -3.000    
      5      1      8      4      -3.000    
      6      1      8      5      -3.000    
      7      1      9      4      -3.000    
      8      1      9      5      -3.000    
      9      1     10      4      -3.000    
     10      1     10      5      -3.000    

     10 WELLS

 REUSING NON-PARAMETER GHB CELLS FROM LAST STRESS PERIOD

      2 GHB CELLS

 REUSING STREAM SEGMENT DATA FROM LAST STRESS PERIOD



            AREAL INFILTRATION RATE
 READING ON UNIT   19 WITH FORMAT: (10F4.0)            

            1           2           3           4           5           6           7           8           9          10
 ........................................................................................................................
   1   5.0000E-09  1.0000E-08   0.000       0.000       0.000       0.000       0.000       0.000       0.000       0.000    
   2   1.0000E-08  5.0000E-09  1.0000E-08   0.000       0.000      4.0000E-08  4.0000E-08  2.5000E-08   0.000       0.000    
   3    0.000      2.5000E-08  5.0000E-09  5.0000E-09  4.0000E-08  4.0000E-08  2.5000E-08  2.5000E-08   0.000       0.000    
   4   4.0000E-08  2.5000E-08  5.0000E-09  5.0000E-09  5.0000E-09  5.0000E-09  5.0000E-09  5.0000E-09  1.0000E-08   0.000    
   5   4.0000E-08  2.5000E-08  5.0000E-09  5.0000E-09  5.0000E-09  5.0000E-09  5.0000E-09  5.0000E-09  5.0000E-09  5.0000E-09
   6   4.0000E-08  2.5000E-08  2.5000E-08  1.0000E-08  1.0000E-08  5.0000E-09  5.0000E-09  5.0000E-09  5.0000E-09  2.5000E-08
   7   4.0000E-08  2.5000E-08  2.5000E-08  1.0000E-08  1.0000E-08  5.0000E-09  5.0000E-09  1.0000E-08  1.0000E-08   0.000    
   8    0.000      2.5000E-08  2.5000E-08  1.0000E-08  1.0000E-08  5.0000E-09  5.0000E-09  1.0000E-08  2.5000E-08   0.000    
   9    0.000      2.5000E-08  2.5000E-08  1.0000E-08  1.0000E-08  5.0000E-09  5.0000E-09  1.0000E-08  2.5000E-08   0.000    
  10    0.000      2.5000E-08  2.5000E-08  1.0000E-08  1.0000E-08  5.0000E-09  5.0000E-09  1.0000E-08  2.5000E-08  4.0000E-08
  11    0.000      5.0000E-09  5.0000E-09  5.0000E-09  5.0000E-09  5.0000E-09  5.0000E-09  1.0000E-08  2.5000E-08   0.000    
  12   5.0000E-09  5.0000E-09  5.0000E-09  5.0000E-09  5.0000E-09  5.0000E-09  5.0000E-09  5.0000E-09  1.0000E-08   0.000    
  13   5.0000E-09  5.0000E-09  1.0000E-08  1.0000E-08  1.0000E-08  1.0000E-08  1.0000E-08  5.0000E-09  5.0000E-09   0.000    
  14    0.000      1.0000E-08  2.5000E-08  2.5000E-08  2.5000E-08  2.5000E-08  2.5000E-08  1.0000E-08  5.0000E-09   0.000    
  15    0.000       0.000      4.0000E-08  4.0000E-08  4.0000E-08  4.0000E-08   0.000       0.000       0.000       0.000    

USING ET RATE FROM PREVIOUS STRESS PERIOD. CURRENT PERIOD IS:       5

 USING ET EXTINCTION DEPTH FROM PREVIOUS STRESS PERIOD. CURRENT PERIOD IS:       5

 USING EXTINCTION WATER CONTENT FROM PREVIOUS STRESS PERIOD. CURRENT PERIOD IS:       5
 
 SOLVING FOR HEAD 
                                                   Max.-Head-Change                         Max.-Flux-Residual
  Residual-Control   Outer-Iter.   Inner-Iter.     Column Row Layer    Maximum-Head-Change  Column Row Layer    Maximum-Flux-Residual          L2-NORM 
          0                 1           2             6    8     1      -0.1821829170E-01       6    8    1        -0.1013780578E+01      0.3489570303E+01
          0                 2           2             6    8     1       0.1805258702E-02       6    8    1         0.1013774700E+00      0.3489562412E+00
          0                 3           2             6    8     1      -0.1609977130E-03       6    8    1        -0.9123979198E-02      0.3140607334E-01
          0                 4           1             6    8     1       0.1277889980E-04       6    8    1         0.7308308655E-03      0.2515627045E-02

    ------------------------------------------------
       NWT REQUIRED            4 OUTER ITERATIONS 
       AND A TOTAL OF          7 INNER ITERATIONS.
    ------------------------------------------------

 NO OUTPUT CONTROL FOR STRESS PERIOD    5   TIME STEP    1
 
 SOLVING FOR HEAD 
                                                   Max.-Head-Change                         Max.-Flux-Residual
  Residual-Control   Outer-Iter.   Inner-Iter.     Column Row Layer    Maximum-Head-Change  Column Row Layer    Maximum-Flux-Residual          L2-NORM 
          0                 1           2             6    8     1      -0.1992569742E-01       6    8    1        -0.1008770961E+01      0.3484795577E+01
          0                 2           2             6    8     1       0.1974444822E-02       6    8    1         0.1008764162E+00      0.3484786752E+00
          0                 3           2             6    8     1      -0.1760861906E-03       6    8    1        -0.9078885260E-02      0.3136309333E-01
          0                 4           1             6    8     1       0.1397652035E-04       6    8    1         0.7272188495E-03      0.2512184344E-02

    ------------------------------------------------
       NWT REQUIRED            4 OUTER ITERATIONS 
       AND A TOTAL OF          7 INNER ITERATIONS.
    ------------------------------------------------

 NO OUTPUT CONTROL FOR STRESS PERIOD    5   TIME STEP    2
 
 SOLVING FOR HEAD 
                                                   Max.-Head-Change                         Max.-Flux-Residual
  Residual-Control   Outer-Iter.   Inner-Iter.     Column Row Layer    Maximum-Head-Change  Column Row Layer    Maximum-Flux-Residual          L2-NORM 
          0                 1           2             6    8     1      -0.2164815312E-01       6    8    1        -0.9972392758E+00      0.3466129533E+01
          0                 2           2             6    8     1       0.2145121735E-02       6    8    1         0.9972314533E-01      0.3466119813E+00
          0                 3           2             6    8     1      -0.1913076258E-03       6    8    1        -0.8975091876E-02      0.3119509173E-01
          0                 4           1             6    8     1       0.1518469339E-04       6    8    1         0.7189049779E-03      0.2498727409E-02

    ------------------------------------------------
       NWT REQUIRED            4 OUTER ITERATIONS 
       AND A TOTAL OF          7 INNER ITERATIONS.
    ------------------------------------------------

 NO OUTPUT CONTROL FOR STRESS PERIOD    5   TIME STEP    3
 
 SOLVING FOR HEAD 
                                                   Max.-Head-Change                         Max.-Flux-Residual
  Residual-Control   Outer-Iter.   Inner-Iter.     Column Row Layer    Maximum-Head-Change  Column Row Layer    Maximum-Flux-Residual          L2-NORM 
          0                 1           2             6    8     1      -0.2349716602E-01       6    8    1        -0.9849462221E+00      0.3447067139E+01
          0                 2           2             6    8     1       0.2328338634E-02       6    8    1         0.9849372448E-01      0.3447056480E+00
          0                 3           2             6    8     1      -0.2076474161E-03       6    8    1        -0.8864445117E-02      0.3102352264E-01
          0                 4           1             6    8     1       0.1648163436E-04       6    8    1         0.7100421590E-03      0.2484984716E-02

    ------------------------------------------------
       NWT REQUIRED            4 OUTER ITERATIONS 
       AND A TOTAL OF          7 INNER ITERATIONS.
    ------------------------------------------------

 NO OUTPUT CONTROL FOR STRESS PERIOD    5   TIME STEP    4
 
 SOLVING FOR HEAD 
                                                   Max.-Head-Change                         Max.-Flux-Residual
  Residual-Control   Outer-Iter.   Inner-Iter.     Column Row Layer    Maximum-Head-Change  Column Row Layer    Maximum-Flux-Residual          L2-NORM 
          0                 1           2             6    8     1      -0.2547901656E-01       6    8    1        -0.9718865539E+00      0.3427716930E+01
          0                 2           2             6    8     1       0.2524717705E-02       6    8    1         0.9718762795E-01      0.3427705295E+00
          0                 3           2             6    8     1      -0.2251610511E-03       6    8    1        -0.8746897687E-02      0.3084936291E-01
          0                 4           1             6    8     1       0.1787174706E-04       6    8    1         0.7006266014E-03      0.2471034504E-02

    ------------------------------------------------
       NWT REQUIRED            4 OUTER ITERATIONS 
       AND A TOTAL OF          7 INNER ITERATIONS.
    ------------------------------------------------

 OUTPUT CONTROL FOR STRESS PERIOD    5   TIME STEP    5
    PRINT BUDGET
    SAVE BUDGET

            WELLS   PERIOD    5   STEP   5
 WELL      1   LAYER   1   ROW     6   COL     4   RATE    -3.00000    
 WELL      2   LAYER   1   ROW     6   COL     5   RATE    -3.00000    
 WELL      3   LAYER   1   ROW     7   COL     4   RATE    -3.00000    
 WELL      4   LAYER   1   ROW     7   COL     5   RATE    -3.00000    
 WELL      5   LAYER   1   ROW     8   COL     4   RATE    -3.00000    
 WELL      6   LAYER   1   ROW     8   COL     5   RATE    -3.00000    
 WELL      7   LAYER   1   ROW     9   COL     4   RATE    -3.00000    
 WELL      8   LAYER   1   ROW     9   COL     5   RATE    -3.00000    
 WELL      9   LAYER   1   ROW    10   COL     4   RATE    -3.00000    
 WELL     10   LAYER   1   ROW    10   COL     5   RATE    -3.00000    

  HEAD DEP BOUNDS   PERIOD    5   STEP   5
 BOUNDARY      1   LAYER   1   ROW    13   COL     1   RATE    0.759373    
 BOUNDARY      2   LAYER   1   ROW    14   COL     9   RATE     2.36941    



 STREAM LISTING     PERIOD      5   STEP        5

 LAYER ROW COL. STREAM  RCH.  FLOW INTO     FLOW TO   FLOW OUT OF   OVRLND.     DIRECT     STREAM       STREAM     STREAM     STREAM   STREAMBED  STREAMBED
                SEG.NO.  NO.  STRM. RCH.    AQUIFER    STRM. RCH.    RUNOFF     PRECIP       ET          HEAD       DEPTH      WIDTH   CONDCTNC.   GRADIENT

   1    1    1     1     1    2.5000E+01  2.4515E-09   2.5000E+01  0.000E+00  0.000E+00  0.000E+00  1.09423E+03  1.178E+00  1.304E+01  5.867E-10  1.393E+00
   1    2    2     1     2    2.5000E+01  3.8085E-09   2.5000E+01  0.000E+00  0.000E+00  0.000E+00  1.08924E+03  1.177E+00  1.302E+01  9.117E-10  1.392E+00
   1    3    3     1     3    2.5000E+01  3.2661E-09   2.5000E+01  0.000E+00  0.000E+00  0.000E+00  1.08360E+03  1.178E+00  1.303E+01  7.818E-10  1.393E+00
   1    3    4     1     4    2.5000E+01  3.0219E-09   2.5000E+01  0.000E+00  0.000E+00  0.000E+00  1.07859E+03  1.178E+00  1.303E+01  7.233E-10  1.393E+00
   1    4    5     2     1    1.5000E+01  3.0290E-01   1.4697E+01  0.000E+00  0.000E+00  0.000E+00  1.07282E+03  8.834E-01  1.200E+01  7.800E-02  1.294E+00
   1    5    6     2     2    1.4697E+01  2.3243E-01   1.4465E+01  0.000E+00  0.000E+00  0.000E+00  1.06738E+03  8.738E-01  1.200E+01  6.000E-02  1.291E+00
   1    6    6     2     3    1.4465E+01  2.3193E-01   1.4233E+01  0.000E+00  0.000E+00  0.000E+00  1.06266E+03  8.654E-01  1.200E+01  6.000E-02  1.288E+00
   1    7    6     2     4    1.4233E+01  2.3142E-01   1.4001E+01  0.000E+00  0.000E+00  0.000E+00  1.05793E+03  8.570E-01  1.200E+01  6.000E-02  1.286E+00
   1    8    6     2     5    1.4001E+01  2.3091E-01   1.3770E+01  0.000E+00  0.000E+00  0.000E+00  1.05321E+03  8.486E-01  1.200E+01  6.000E-02  1.283E+00
   1    3    5     3     1    1.0000E+01  2.8252E-01   9.7175E+00  0.000E+00  0.000E+00  0.000E+00  1.07555E+03  1.909E+00  9.636E+00  7.227E-02  1.955E+00
   1    3    6     3     2    9.7175E+00  2.4905E-01   9.4684E+00  0.000E+00  0.000E+00  0.000E+00  1.07264E+03  1.727E+00  8.909E+00  6.682E-02  1.864E+00
   1    3    7     3     3    9.4684E+00  1.9718E-01   9.2712E+00  0.000E+00  0.000E+00  0.000E+00  1.06987E+03  1.555E+00  8.218E+00  5.547E-02  1.777E+00
   1    4    8     3     4    9.2712E+00  2.2567E-01   9.0456E+00  0.000E+00  0.000E+00  0.000E+00  1.06682E+03  1.364E+00  7.455E+00  6.709E-02  1.682E+00
   1    5    8     3     5    9.0456E+00  1.5790E-01   8.8877E+00  0.000E+00  0.000E+00  0.000E+00  1.06362E+03  1.164E+00  6.655E+00  4.991E-02  1.582E+00
   1    6    8     3     6    8.8877E+00  5.5980E-02   8.8317E+00  0.000E+00  0.000E+00  0.000E+00  1.06158E+03  1.036E+00  6.145E+00  1.844E-02  1.518E+00
   1    5   10     4     1    1.0000E+01  9.0919E-02   9.9091E+00  0.000E+00  0.000E+00  0.000E+00  1.07836E+03  6.368E-01  1.000E+01  2.500E-02  1.212E+00
   1    5    9     4     2    9.9091E+00  1.8158E-01   9.7275E+00  0.000E+00  0.000E+00  0.000E+00  1.07154E+03  6.315E-01  1.000E+01  5.000E-02  1.211E+00
   1    6    8     4     3    9.7275E+00  1.2689E-01   9.6006E+00  0.000E+00  0.000E+00  0.000E+00  1.06381E+03  6.256E-01  1.000E+01  3.500E-02  1.209E+00
   1    6    8     5     1    1.8432E+01  3.3262E-09   1.8432E+01  0.000E+00  0.000E+00  0.000E+00  1.05883E+03  8.293E-01  2.172E+01  8.686E-10  1.276E+00
   1    7    7     5     2    1.8432E+01  4.1514E-09   1.8432E+01  0.000E+00  0.000E+00  0.000E+00  1.05433E+03  8.286E-01  2.169E+01  1.084E-09  1.276E+00
   1    8    7     5     3    1.8432E+01  2.9126E-09   1.8432E+01  0.000E+00  0.000E+00  0.000E+00  1.05008E+03  8.296E-01  2.173E+01  7.606E-10  1.277E+00
   1    8    6     5     4    1.8432E+01  2.0836E-09   1.8432E+01  0.000E+00  0.000E+00  0.000E+00  1.04708E+03  8.303E-01  2.176E+01  5.440E-10  1.277E+00
   1    9    6     6     1    3.2203E+01  2.6507E-01   3.1938E+01  0.000E+00  0.000E+00  0.000E+00  1.04415E+03  1.418E+00  1.200E+01  6.000E-02  1.473E+00
   1   10    7     6     2    3.1938E+01  2.6465E-01   3.1673E+01  0.000E+00  0.000E+00  0.000E+00  1.03959E+03  1.411E+00  1.200E+01  6.000E-02  1.470E+00
   1   11    7     6     3    3.1673E+01  2.6423E-01   3.1409E+01  0.000E+00  0.000E+00  0.000E+00  1.03504E+03  1.404E+00  1.200E+01  6.000E-02  1.468E+00
   1   12    7     6     4    3.1409E+01  2.6380E-01   3.1145E+01  0.000E+00  0.000E+00  0.000E+00  1.03049E+03  1.397E+00  1.200E+01  6.000E-02  1.466E+00
   1   13    7     6     5    3.1145E+01  1.0540E-01   3.1040E+01  0.000E+00  0.000E+00  0.000E+00  1.02730E+03  1.392E+00  1.200E+01  2.400E-02  1.464E+00
   1   14    9     7     1    1.5000E+02  2.9539E-14   1.5000E+02  0.000E+00  0.000E+00  0.000E+00  1.03986E+03  2.283E+00  5.528E+01  5.591E-15  1.761E+00
   1   13    8     7     2    1.5000E+02  3.2486E-13   1.5000E+02  0.000E+00  0.000E+00  0.000E+00  1.03478E+03  2.283E+00  5.527E+01  6.150E-14  1.761E+00
   1   13    7     7     3    1.5000E+02  2.9539E-14   1.5000E+02  0.000E+00  0.000E+00  0.000E+00  1.02970E+03  2.283E+00  5.528E+01  5.591E-15  1.761E+00
   1   13    6     8     1    1.8104E+02  0.0000E+00   1.8104E+02  0.000E+00  0.000E+00  0.000E+00  1.02490E+03  3.023E+00  4.383E+01  0.000E+00  2.008E+00
   1   13    5     8     2    1.8104E+02  2.6787E-12   1.8104E+02  0.000E+00  0.000E+00  0.000E+00  1.01864E+03  3.014E+00  4.371E+01  4.454E-13  2.005E+00
   1   13    4     8     3    1.8104E+02  2.6787E-12   1.8104E+02  0.000E+00  0.000E+00  0.000E+00  1.01239E+03  3.014E+00  4.371E+01  4.454E-13  2.005E+00
   1   13    3     8     4    1.8104E+02  2.6787E-12   1.8104E+02  0.000E+00  0.000E+00  0.000E+00  1.00614E+03  3.014E+00  4.371E+01  4.454E-13  2.005E+00
   1   13    2     8     5    1.8104E+02  2.6787E-12   1.8104E+02  0.000E+00  0.000E+00  0.000E+00  9.99889E+02  3.014E+00  4.371E+01  4.454E-13  2.005E+00
   1   13    1     8     6    1.8104E+02  1.6099E-08   1.8104E+02  0.000E+00  0.000E+00  0.000E+00  9.94893E+02  3.018E+00  4.376E+01  2.675E-09  2.006E+00



 UBDSV3 SAVING "     NETRECHARGE" ON UNIT 100 AT TIME STEP  5, STRESS PERIOD   5
 UBDSV3 SAVING "    NETDISCHARGE" ON UNIT 101 AT TIME STEP  5, STRESS PERIOD   5
 UBDSV3 SAVING "           GW ET" ON UNIT  61 AT TIME STEP  5, STRESS PERIOD   5
 UBDSV3 SAVING "    UZF RECHARGE" ON UNIT  61 AT TIME STEP  5, STRESS PERIOD   5
 UBDSV3 SAVING " SURFACE LEAKAGE" ON UNIT  61 AT TIME STEP  5, STRESS PERIOD   5
 UBDSV3 SAVING "       HORT+DUNN" ON UNIT  61 AT TIME STEP  5, STRESS PERIOD   5
 UBDSV3 SAVING "  STORAGE CHANGE" ON UNIT  61 AT TIME STEP  5, STRESS PERIOD   5


UNSATURATED ZONE PACKAGE VOLUMETRIC BUDGET FOR  TIME STEP     5 STRESS PERIOD    5
  ------------------------------------------------------------------------------



     CUMULATIVE VOLUMES      L**3       RATES FOR THIS TIME STEP      L**3/T
     ------------------                 ------------------------

           IN:                                      IN:
           ---                                      ---
        INFILTRATION =    31949215.0957          INFILTRATION =           2.9000

          OUT:                                     OUT:
          ----                                     ----
              UZF ET =     5400592.9419                UZF ET =           1.1004
        UZF RECHARGE =     7621246.6355          UZF RECHARGE =       0.0000E+00

            IN - OUT =    18927375.5183              IN - OUT =           1.7996

          STORAGE:                                 STORAGE:
          --------                                 --------
      STORAGE CHANGE =    18927375.5194        STORAGE CHANGE =           1.7996

 PERCENT DISCREPANCY IS DIFFERENCE BETWEEN IN-OUT MINUS CHANGE IN STORAGE
 DIVIDED BY THE AVERAGE OF IN AND OUT TIMES 100

 PERCENT DISCREPANCY =           0.00     PERCENT DISCREPANCY =           0.00






1
  VOLUMETRIC BUDGET FOR ENTIRE MODEL AT END OF TIME STEP    5, STRESS PERIOD   5
  ------------------------------------------------------------------------------

     CUMULATIVE VOLUMES      L**3       RATES FOR THIS TIME STEP      L**3/T
     ------------------                 ------------------------

           IN:                                      IN:
           ---                                      ---
             STORAGE =   270965152.0000               STORAGE =          22.9096
       CONSTANT HEAD =           0.0000         CONSTANT HEAD =           0.0000
               WELLS =           0.0000                 WELLS =           0.0000
     HEAD DEP BOUNDS =    34448052.0000       HEAD DEP BOUNDS =           3.1288
      STREAM LEAKAGE =    43747104.0000        STREAM LEAKAGE =           3.9604
        UZF RECHARGE =     7621252.0000          UZF RECHARGE =           0.0000
               GW ET =           0.0000                 GW ET =           0.0000
     SURFACE LEAKAGE =           0.0000       SURFACE LEAKAGE =           0.0000

            TOTAL IN =   356781568.0000              TOTAL IN =          29.9988

          OUT:                                     OUT:
          ----                                     ----
             STORAGE =        3107.9111               STORAGE =           0.0000
       CONSTANT HEAD =           0.0000         CONSTANT HEAD =           0.0000
               WELLS =   356789152.0000                 WELLS =          30.0000
     HEAD DEP BOUNDS =           0.0000       HEAD DEP BOUNDS =           0.0000
      STREAM LEAKAGE =           0.0000        STREAM LEAKAGE =           0.0000
        UZF RECHARGE =           0.0000          UZF RECHARGE =           0.0000
               GW ET =           0.0000                 GW ET =           0.0000
     SURFACE LEAKAGE =           0.0000       SURFACE LEAKAGE =           0.0000

           TOTAL OUT =   356792256.0000             TOTAL OUT =          30.0000

            IN - OUT =      -10688.0000              IN - OUT =      -1.1578E-03

 PERCENT DISCREPANCY =          -0.00     PERCENT DISCREPANCY =          -0.00






         TIME SUMMARY AT END OF TIME STEP    5 IN STRESS PERIOD    5
                    SECONDS     MINUTES      HOURS       DAYS        YEARS
                    -----------------------------------------------------------
   TIME STEP LENGTH 1.21100E+05  2018.3      33.639      1.4016     3.83743E-03
 STRESS PERIOD TIME 5.04972E+05  8416.2      140.27      5.8446     1.60016E-02
         TOTAL TIME 1.10170E+07 1.83616E+05  3060.3      127.51     0.34911    
1
 
 SOLVING FOR HEAD 
                                                   Max.-Head-Change                         Max.-Flux-Residual
  Residual-Control   Outer-Iter.   Inner-Iter.     Column Row Layer    Maximum-Head-Change  Column Row Layer    Maximum-Flux-Residual          L2-NORM 
          0                 1           2             3    8     1      -0.2772014081E-01       6    8    1        -0.9580561515E+00      0.3408171445E+01
          0                 2           2             3    8     1       0.2746802881E-02       6    8    1         0.9580444295E-01      0.3408158802E+00
          0                 3           2             3    8     1      -0.2449670796E-03       6    8    1        -0.8622412440E-02      0.3067344544E-01
          0                 4           1             3    8     1       0.1944381536E-04       6    8    1         0.6906553099E-03      0.2456943502E-02

    ------------------------------------------------
       NWT REQUIRED            4 OUTER ITERATIONS 
       AND A TOTAL OF          7 INNER ITERATIONS.
    ------------------------------------------------

 NO OUTPUT CONTROL FOR STRESS PERIOD    5   TIME STEP    6
 
 SOLVING FOR HEAD 
                                                   Max.-Head-Change                         Max.-Flux-Residual
  Residual-Control   Outer-Iter.   Inner-Iter.     Column Row Layer    Maximum-Head-Change  Column Row Layer    Maximum-Flux-Residual          L2-NORM 
          0                 1           2             3    8     1      -0.3038912734E-01       6    8    1        -0.9434559950E+00      0.3388539138E+01
          0                 2           2             3    8     1       0.3011272097E-02       6    8    1         0.9434426687E-01      0.3388525461E+00
          0                 3           2             3    8     1      -0.2685531576E-03       6    8    1        -0.8490998162E-02      0.3049674637E-01
          0                 4           1             3    8     1       0.2131591721E-04       6    8    1         0.6801290201E-03      0.2442789897E-02

    ------------------------------------------------
       NWT REQUIRED            4 OUTER ITERATIONS 
       AND A TOTAL OF          7 INNER ITERATIONS.
    ------------------------------------------------

 NO OUTPUT CONTROL FOR STRESS PERIOD    5   TIME STEP    7
 
 SOLVING FOR HEAD 
                                                   Max.-Head-Change                         Max.-Flux-Residual
  Residual-Control   Outer-Iter.   Inner-Iter.     Column Row Layer    Maximum-Head-Change  Column Row Layer    Maximum-Flux-Residual          L2-NORM 
          0                 1           2             3    8     1      -0.3330055278E-01       6    8    1        -0.9281026384E+00      0.3368916337E+01
          0                 2           2             3    8     1       0.3299763873E-02       6    8    1         0.9280875476E-01      0.3368901606E+00
          0                 3           2             3    8     1      -0.2942816382E-03       6    8    1        -0.8352803784E-02      0.3032013268E-01
          0                 4           1             3    8     1       0.2335806802E-04       6    8    1         0.6690596319E-03      0.2428643125E-02

    ------------------------------------------------
       NWT REQUIRED            4 OUTER ITERATIONS 
       AND A TOTAL OF          7 INNER ITERATIONS.
    ------------------------------------------------

 NO OUTPUT CONTROL FOR STRESS PERIOD    5   TIME STEP    8
 
 SOLVING FOR HEAD 
                                                   Max.-Head-Change                         Max.-Flux-Residual
  Residual-Control   Outer-Iter.   Inner-Iter.     Column Row Layer    Maximum-Head-Change  Column Row Layer    Maximum-Flux-Residual          L2-NORM 
          0                 1           2             3    8     1      -0.3647329696E-01       6    8    1        -0.9120305843E+00      0.3349403641E+01
          0                 2           2             3    8     1       0.3614148738E-02       6    8    1         0.9120135693E-01      0.3349387836E+00
          0                 3           2             3    8     1      -0.3223193441E-03       6    8    1        -0.8208139847E-02      0.3014450978E-01
          0                 4           1             3    8     1       0.2558350962E-04       6    8    1         0.6574720464E-03      0.2414575719E-02

    ------------------------------------------------
       NWT REQUIRED            4 OUTER ITERATIONS 
       AND A TOTAL OF          7 INNER ITERATIONS.
    ------------------------------------------------

 NO OUTPUT CONTROL FOR STRESS PERIOD    5   TIME STEP    9
 
 SOLVING FOR HEAD 
                                                   Max.-Head-Change                         Max.-Flux-Residual
  Residual-Control   Outer-Iter.   Inner-Iter.     Column Row Layer    Maximum-Head-Change  Column Row Layer    Maximum-Flux-Residual          L2-NORM 
          0                 1           2             3    8     1      -0.3992668455E-01       6    8    1        -0.8952767220E+00      0.3330078680E+01
          0                 2           2             3    8     1       0.3956341208E-02       6    8    1         0.8952576286E-01      0.3330061778E+00
          0                 3           2             3    8     1      -0.3528370196E-03       6    8    1        -0.8057338406E-02      0.2997057632E-01
          0                 4           1             3    8     1       0.2800579399E-04       6    8    1         0.6453928163E-03      0.2400643642E-02

    ------------------------------------------------
       NWT REQUIRED            4 OUTER ITERATIONS 
       AND A TOTAL OF          7 INNER ITERATIONS.
    ------------------------------------------------

 OUTPUT CONTROL FOR STRESS PERIOD    5   TIME STEP   10
    PRINT BUDGET
    SAVE BUDGET

            WELLS   PERIOD    5   STEP  10
 WELL      1   LAYER   1   ROW     6   COL     4   RATE    -3.00000    
 WELL      2   LAYER   1   ROW     6   COL     5   RATE    -3.00000    
 WELL      3   LAYER   1   ROW     7   COL     4   RATE    -3.00000    
 WELL      4   LAYER   1   ROW     7   COL     5   RATE    -3.00000    
 WELL      5   LAYER   1   ROW     8   COL     4   RATE    -3.00000    
 WELL      6   LAYER   1   ROW     8   COL     5   RATE    -3.00000    
 WELL      7   LAYER   1   ROW     9   COL     4   RATE    -3.00000    
 WELL      8   LAYER   1   ROW     9   COL     5   RATE    -3.00000    
 WELL      9   LAYER   1   ROW    10   COL     4   RATE    -3.00000    
 WELL     10   LAYER   1   ROW    10   COL     5   RATE    -3.00000    

  HEAD DEP BOUNDS   PERIOD    5   STEP  10
 BOUNDARY      1   LAYER   1   ROW    13   COL     1   RATE    0.759530    
 BOUNDARY      2   LAYER   1   ROW    14   COL     9   RATE     2.36957    



 STREAM LISTING     PERIOD      5   STEP       10

 LAYER ROW COL. STREAM  RCH.  FLOW INTO     FLOW TO   FLOW OUT OF   OVRLND.     DIRECT     STREAM       STREAM     STREAM     STREAM   STREAMBED  STREAMBED
                SEG.NO.  NO.  STRM. RCH.    AQUIFER    STRM. RCH.    RUNOFF     PRECIP       ET          HEAD       DEPTH      WIDTH   CONDCTNC.   GRADIENT

   1    1    1     1     1    2.5000E+01  2.4515E-09   2.5000E+01  0.000E+00  0.000E+00  0.000E+00  1.09423E+03  1.178E+00  1.304E+01  5.867E-10  1.393E+00
   1    2    2     1     2    2.5000E+01  3.8085E-09   2.5000E+01  0.000E+00  0.000E+00  0.000E+00  1.08924E+03  1.177E+00  1.302E+01  9.117E-10  1.392E+00
   1    3    3     1     3    2.5000E+01  3.2661E-09   2.5000E+01  0.000E+00  0.000E+00  0.000E+00  1.08360E+03  1.178E+00  1.303E+01  7.818E-10  1.393E+00
   1    3    4     1     4    2.5000E+01  3.0219E-09   2.5000E+01  0.000E+00  0.000E+00  0.000E+00  1.07859E+03  1.178E+00  1.303E+01  7.233E-10  1.393E+00
   1    4    5     2     1    1.5000E+01  3.0290E-01   1.4697E+01  0.000E+00  0.000E+00  0.000E+00  1.07282E+03  8.834E-01  1.200E+01  7.800E-02  1.294E+00
   1    5    6     2     2    1.4697E+01  2.3243E-01   1.4465E+01  0.000E+00  0.000E+00  0.000E+00  1.06738E+03  8.738E-01  1.200E+01  6.000E-02  1.291E+00
   1    6    6     2     3    1.4465E+01  2.3193E-01   1.4233E+01  0.000E+00  0.000E+00  0.000E+00  1.06266E+03  8.654E-01  1.200E+01  6.000E-02  1.288E+00
   1    7    6     2     4    1.4233E+01  2.3142E-01   1.4001E+01  0.000E+00  0.000E+00  0.000E+00  1.05793E+03  8.570E-01  1.200E+01  6.000E-02  1.286E+00
   1    8    6     2     5    1.4001E+01  2.3091E-01   1.3770E+01  0.000E+00  0.000E+00  0.000E+00  1.05321E+03  8.486E-01  1.200E+01  6.000E-02  1.283E+00
   1    3    5     3     1    1.0000E+01  2.8252E-01   9.7175E+00  0.000E+00  0.000E+00  0.000E+00  1.07555E+03  1.909E+00  9.636E+00  7.227E-02  1.955E+00
   1    3    6     3     2    9.7175E+00  2.4905E-01   9.4684E+00  0.000E+00  0.000E+00  0.000E+00  1.07264E+03  1.727E+00  8.909E+00  6.682E-02  1.864E+00
   1    3    7     3     3    9.4684E+00  1.9718E-01   9.2712E+00  0.000E+00  0.000E+00  0.000E+00  1.06987E+03  1.555E+00  8.218E+00  5.547E-02  1.777E+00
   1    4    8     3     4    9.2712E+00  2.2567E-01   9.0456E+00  0.000E+00  0.000E+00  0.000E+00  1.06682E+03  1.364E+00  7.455E+00  6.709E-02  1.682E+00
   1    5    8     3     5    9.0456E+00  1.5790E-01   8.8877E+00  0.000E+00  0.000E+00  0.000E+00  1.06362E+03  1.164E+00  6.655E+00  4.991E-02  1.582E+00
   1    6    8     3     6    8.8877E+00  5.5980E-02   8.8317E+00  0.000E+00  0.000E+00  0.000E+00  1.06158E+03  1.036E+00  6.145E+00  1.844E-02  1.518E+00
   1    5   10     4     1    1.0000E+01  9.0919E-02   9.9091E+00  0.000E+00  0.000E+00  0.000E+00  1.07836E+03  6.368E-01  1.000E+01  2.500E-02  1.212E+00
   1    5    9     4     2    9.9091E+00  1.8158E-01   9.7275E+00  0.000E+00  0.000E+00  0.000E+00  1.07154E+03  6.315E-01  1.000E+01  5.000E-02  1.211E+00
   1    6    8     4     3    9.7275E+00  1.2689E-01   9.6006E+00  0.000E+00  0.000E+00  0.000E+00  1.06381E+03  6.256E-01  1.000E+01  3.500E-02  1.209E+00
   1    6    8     5     1    1.8432E+01  3.3262E-09   1.8432E+01  0.000E+00  0.000E+00  0.000E+00  1.05883E+03  8.293E-01  2.172E+01  8.686E-10  1.276E+00
   1    7    7     5     2    1.8432E+01  4.1514E-09   1.8432E+01  0.000E+00  0.000E+00  0.000E+00  1.05433E+03  8.286E-01  2.169E+01  1.084E-09  1.276E+00
   1    8    7     5     3    1.8432E+01  2.9126E-09   1.8432E+01  0.000E+00  0.000E+00  0.000E+00  1.05008E+03  8.296E-01  2.173E+01  7.606E-10  1.277E+00
   1    8    6     5     4    1.8432E+01  2.0836E-09   1.8432E+01  0.000E+00  0.000E+00  0.000E+00  1.04708E+03  8.303E-01  2.176E+01  5.440E-10  1.277E+00
   1    9    6     6     1    3.2203E+01  2.6507E-01   3.1938E+01  0.000E+00  0.000E+00  0.000E+00  1.04415E+03  1.418E+00  1.200E+01  6.000E-02  1.473E+00
   1   10    7     6     2    3.1938E+01  2.6465E-01   3.1673E+01  0.000E+00  0.000E+00  0.000E+00  1.03959E+03  1.411E+00  1.200E+01  6.000E-02  1.470E+00
   1   11    7     6     3    3.1673E+01  2.6423E-01   3.1409E+01  0.000E+00  0.000E+00  0.000E+00  1.03504E+03  1.404E+00  1.200E+01  6.000E-02  1.468E+00
   1   12    7     6     4    3.1409E+01  2.6380E-01   3.1145E+01  0.000E+00  0.000E+00  0.000E+00  1.03049E+03  1.397E+00  1.200E+01  6.000E-02  1.466E+00
   1   13    7     6     5    3.1145E+01  1.0540E-01   3.1040E+01  0.000E+00  0.000E+00  0.000E+00  1.02730E+03  1.392E+00  1.200E+01  2.400E-02  1.464E+00
   1   14    9     7     1    1.5000E+02  2.9539E-14   1.5000E+02  0.000E+00  0.000E+00  0.000E+00  1.03986E+03  2.283E+00  5.528E+01  5.591E-15  1.761E+00
   1   13    8     7     2    1.5000E+02  3.2486E-13   1.5000E+02  0.000E+00  0.000E+00  0.000E+00  1.03478E+03  2.283E+00  5.527E+01  6.150E-14  1.761E+00
   1   13    7     7     3    1.5000E+02  2.9539E-14   1.5000E+02  0.000E+00  0.000E+00  0.000E+00  1.02970E+03  2.283E+00  5.528E+01  5.591E-15  1.761E+00
   1   13    6     8     1    1.8104E+02  0.0000E+00   1.8104E+02  0.000E+00  0.000E+00  0.000E+00  1.02490E+03  3.023E+00  4.383E+01  0.000E+00  2.008E+00
   1   13    5     8     2    1.8104E+02  2.6787E-12   1.8104E+02  0.000E+00  0.000E+00  0.000E+00  1.01864E+03  3.014E+00  4.371E+01  4.454E-13  2.005E+00
   1   13    4     8     3    1.8104E+02  2.6787E-12   1.8104E+02  0.000E+00  0.000E+00  0.000E+00  1.01239E+03  3.014E+00  4.371E+01  4.454E-13  2.005E+00
   1   13    3     8     4    1.8104E+02  2.6787E-12   1.8104E+02  0.000E+00  0.000E+00  0.000E+00  1.00614E+03  3.014E+00  4.371E+01  4.454E-13  2.005E+00
   1   13    2     8     5    1.8104E+02  2.6787E-12   1.8104E+02  0.000E+00  0.000E+00  0.000E+00  9.99889E+02  3.014E+00  4.371E+01  4.454E-13  2.005E+00
   1   13    1     8     6    1.8104E+02  1.6099E-08   1.8104E+02  0.000E+00  0.000E+00  0.000E+00  9.94893E+02  3.018E+00  4.376E+01  2.675E-09  2.006E+00



 UBDSV3 SAVING "     NETRECHARGE" ON UNIT 100 AT TIME STEP 10, STRESS PERIOD   5
 UBDSV3 SAVING "    NETDISCHARGE" ON UNIT 101 AT TIME STEP 10, STRESS PERIOD   5
 UBDSV3 SAVING "           GW ET" ON UNIT  61 AT TIME STEP 10, STRESS PERIOD   5
 UBDSV3 SAVING "    UZF RECHARGE" ON UNIT  61 AT TIME STEP 10, STRESS PERIOD   5
 UBDSV3 SAVING " SURFACE LEAKAGE" ON UNIT  61 AT TIME STEP 10, STRESS PERIOD   5
 UBDSV3 SAVING "       HORT+DUNN" ON UNIT  61 AT TIME STEP 10, STRESS PERIOD   5
 UBDSV3 SAVING "  STORAGE CHANGE" ON UNIT  61 AT TIME STEP 10, STRESS PERIOD   5


UNSATURATED ZONE PACKAGE VOLUMETRIC BUDGET FOR  TIME STEP    10 STRESS PERIOD    5
  ------------------------------------------------------------------------------



     CUMULATIVE VOLUMES      L**3       RATES FOR THIS TIME STEP      L**3/T
     ------------------                 ------------------------

           IN:                                      IN:
           ---                                      ---
        INFILTRATION =    34307674.3633          INFILTRATION =           2.9000

          OUT:                                     OUT:
          ----                                     ----
              UZF ET =     6322250.9490                UZF ET =           1.1521
        UZF RECHARGE =     7621246.6355          UZF RECHARGE =       0.0000E+00

            IN - OUT =    20364176.7788              IN - OUT =           1.7479

          STORAGE:                                 STORAGE:
          --------                                 --------
      STORAGE CHANGE =    20364176.7569        STORAGE CHANGE =           1.7479

 PERCENT DISCREPANCY IS DIFFERENCE BETWEEN IN-OUT MINUS CHANGE IN STORAGE
 DIVIDED BY THE AVERAGE OF IN AND OUT TIMES 100

 PERCENT DISCREPANCY =           0.00     PERCENT DISCREPANCY =           0.00






1
  VOLUMETRIC BUDGET FOR ENTIRE MODEL AT END OF TIME STEP   10, STRESS PERIOD   5
  ------------------------------------------------------------------------------

     CUMULATIVE VOLUMES      L**3       RATES FOR THIS TIME STEP      L**3/T
     ------------------                 ------------------------

           IN:                                      IN:
           ---                                      ---
             STORAGE =   289596480.0000               STORAGE =          22.9093
       CONSTANT HEAD =           0.0000         CONSTANT HEAD =           0.0000
               WELLS =           0.0000                 WELLS =           0.0000
     HEAD DEP BOUNDS =    36992724.0000       HEAD DEP BOUNDS =           3.1291
      STREAM LEAKAGE =    46967976.0000        STREAM LEAKAGE =           3.9604
        UZF RECHARGE =     7621252.0000          UZF RECHARGE =           0.0000
               GW ET =           0.0000                 GW ET =           0.0000
     SURFACE LEAKAGE =           0.0000       SURFACE LEAKAGE =           0.0000

            TOTAL IN =   381178432.0000              TOTAL IN =          29.9988

          OUT:                                     OUT:
          ----                                     ----
             STORAGE =        3107.9111               STORAGE =           0.0000
       CONSTANT HEAD =           0.0000         CONSTANT HEAD =           0.0000
               WELLS =   381187008.0000                 WELLS =          30.0000
     HEAD DEP BOUNDS =           0.0000       HEAD DEP BOUNDS =           0.0000
      STREAM LEAKAGE =           0.0000        STREAM LEAKAGE =           0.0000
        UZF RECHARGE =           0.0000          UZF RECHARGE =           0.0000
               GW ET =           0.0000                 GW ET =           0.0000
     SURFACE LEAKAGE =           0.0000       SURFACE LEAKAGE =           0.0000

           TOTAL OUT =   381190112.0000             TOTAL OUT =          30.0000

            IN - OUT =      -11680.0000              IN - OUT =      -1.1578E-03

 PERCENT DISCREPANCY =          -0.00     PERCENT DISCREPANCY =          -0.00






         TIME SUMMARY AT END OF TIME STEP   10 IN STRESS PERIOD    5
                    SECONDS     MINUTES      HOURS       DAYS        YEARS
                    -----------------------------------------------------------
   TIME STEP LENGTH 1.95033E+05  3250.6      54.176      2.2573     6.18023E-03
 STRESS PERIOD TIME 1.31823E+06  21971.      366.18      15.257     4.17723E-02
         TOTAL TIME 1.18302E+07 1.97171E+05  3286.2      136.92     0.37488    
1
 
 SOLVING FOR HEAD 
                                                   Max.-Head-Change                         Max.-Flux-Residual
  Residual-Control   Outer-Iter.   Inner-Iter.     Column Row Layer    Maximum-Head-Change  Column Row Layer    Maximum-Flux-Residual          L2-NORM 
          0                 1           2             3    8     1      -0.4368018219E-01       6    8    1        -0.8778991145E+00      0.3311006843E+01
          0                 2           2             3    8     1       0.4328269756E-02       6    8    1         0.8778777990E-01      0.3310988811E+00
          0                 3           2             3    8     1      -0.3860066564E-03       6    8    1        -0.7900922097E-02      0.2979892070E-01
          0                 4           1             3    8     1       0.3063857302E-04       6    8    1         0.6328638524E-03      0.2386894016E-02

    ------------------------------------------------
       NWT REQUIRED            4 OUTER ITERATIONS 
       AND A TOTAL OF          7 INNER ITERATIONS.
    ------------------------------------------------

 NO OUTPUT CONTROL FOR STRESS PERIOD    5   TIME STEP   11
 
 SOLVING FOR HEAD 
                                                   Max.-Head-Change                         Max.-Flux-Residual
  Residual-Control   Outer-Iter.   Inner-Iter.     Column Row Layer    Maximum-Head-Change  Column Row Layer    Maximum-Flux-Residual          L2-NORM 
          0                 1           2             3    8     1      -0.4775438954E-01       6    8    1        -0.8599701148E+00      0.3292235784E+01
          0                 2           2             3    8     1       0.4731974977E-02       6    8    1         0.8599464509E-01      0.3292216569E+00
          0                 3           2             3    8     1      -0.4220102456E-03       6    8    1        -0.7739542248E-02      0.2962997166E-01
          0                 4           1             3    8     1       0.3349629085E-04       6    8    1         0.6199373079E-03      0.2373361182E-02

    ------------------------------------------------
       NWT REQUIRED            4 OUTER ITERATIONS 
       AND A TOTAL OF          7 INNER ITERATIONS.
    ------------------------------------------------

 NO OUTPUT CONTROL FOR STRESS PERIOD    5   TIME STEP   12
 
 SOLVING FOR HEAD 
                                                   Max.-Head-Change                         Max.-Flux-Residual
  Residual-Control   Outer-Iter.   Inner-Iter.     Column Row Layer    Maximum-Head-Change  Column Row Layer    Maximum-Flux-Residual          L2-NORM 
          0                 1           2             3    8     1      -0.5216932026E-01       6    8    1        -0.8415725025E+00      0.3273777514E+01
          0                 2           2             3    8     1       0.5169439224E-02       6    8    1         0.8415463879E-01      0.3273757038E+00
          0                 3           2             3    8     1      -0.4610245878E-03       6    8    1        -0.7573944070E-02      0.2946383710E-01
          0                 4           1             3    8     1       0.3659298266E-04       6    8    1         0.6066728652E-03      0.2360053789E-02

    ------------------------------------------------
       NWT REQUIRED            4 OUTER ITERATIONS 
       AND A TOTAL OF          7 INNER ITERATIONS.
    ------------------------------------------------

 NO OUTPUT CONTROL FOR STRESS PERIOD    5   TIME STEP   13
 
 SOLVING FOR HEAD 
                                                   Max.-Head-Change                         Max.-Flux-Residual
  Residual-Control   Outer-Iter.   Inner-Iter.     Column Row Layer    Maximum-Head-Change  Column Row Layer    Maximum-Flux-Residual          L2-NORM 
          0                 1           2             3    8     1      -0.5694534501E-01       6    8    1        -0.8228132102E+00      0.3255630795E+01
          0                 2           2             3    8     1       0.5642680002E-02       6    8    1         0.8227845721E-01      0.3255608940E+00
          0                 3           2             3    8     1      -0.5032296188E-03       6    8    1        -0.7405090181E-02      0.2930050555E-01
          0                 4           1             3    8     1       0.3994292844E-04       6    8    1         0.5931476476E-03      0.2346970924E-02

    ------------------------------------------------
       NWT REQUIRED            4 OUTER ITERATIONS 
       AND A TOTAL OF          7 INNER ITERATIONS.
    ------------------------------------------------

 NO OUTPUT CONTROL FOR STRESS PERIOD    5   TIME STEP   14
 
 SOLVING FOR HEAD 
                                                   Max.-Head-Change                         Max.-Flux-Residual
  Residual-Control   Outer-Iter.   Inner-Iter.     Column Row Layer    Maximum-Head-Change  Column Row Layer    Maximum-Flux-Residual          L2-NORM 
          0                 1           2             3    8     1      -0.6210226081E-01       4    8    1        -0.8111583013E+00      0.3237751819E+01
          0                 2           2             3    8     1       0.6153657709E-02       4    8    1         0.8111391153E-01      0.3237728416E+00
          0                 3           2             3    8     1      -0.5488001851E-03       4    8    1        -0.7300271780E-02      0.2913958234E-01
          0                 4           1             3    8     1       0.4356000749E-04       4    8    1         0.5847517705E-03      0.2334080953E-02

    ------------------------------------------------
       NWT REQUIRED            4 OUTER ITERATIONS 
       AND A TOTAL OF          7 INNER ITERATIONS.
    ------------------------------------------------

 OUTPUT CONTROL FOR STRESS PERIOD    5   TIME STEP   15
    PRINT BUDGET
    SAVE BUDGET

            WELLS   PERIOD    5   STEP  15
 WELL      1   LAYER   1   ROW     6   COL     4   RATE    -3.00000    
 WELL      2   LAYER   1   ROW     6   COL     5   RATE    -3.00000    
 WELL      3   LAYER   1   ROW     7   COL     4   RATE    -3.00000    
 WELL      4   LAYER   1   ROW     7   COL     5   RATE    -3.00000    
 WELL      5   LAYER   1   ROW     8   COL     4   RATE    -3.00000    
 WELL      6   LAYER   1   ROW     8   COL     5   RATE    -3.00000    
 WELL      7   LAYER   1   ROW     9   COL     4   RATE    -3.00000    
 WELL      8   LAYER   1   ROW     9   COL     5   RATE    -3.00000    
 WELL      9   LAYER   1   ROW    10   COL     4   RATE    -3.00000    
 WELL     10   LAYER   1   ROW    10   COL     5   RATE    -3.00000    

  HEAD DEP BOUNDS   PERIOD    5   STEP  15
 BOUNDARY      1   LAYER   1   ROW    13   COL     1   RATE    0.759785    
 BOUNDARY      2   LAYER   1   ROW    14   COL     9   RATE     2.36982    



 STREAM LISTING     PERIOD      5   STEP       15

 LAYER ROW COL. STREAM  RCH.  FLOW INTO     FLOW TO   FLOW OUT OF   OVRLND.     DIRECT     STREAM       STREAM     STREAM     STREAM   STREAMBED  STREAMBED
                SEG.NO.  NO.  STRM. RCH.    AQUIFER    STRM. RCH.    RUNOFF     PRECIP       ET          HEAD       DEPTH      WIDTH   CONDCTNC.   GRADIENT

   1    1    1     1     1    2.5000E+01  2.4515E-09   2.5000E+01  0.000E+00  0.000E+00  0.000E+00  1.09423E+03  1.178E+00  1.304E+01  5.867E-10  1.393E+00
   1    2    2     1     2    2.5000E+01  3.8085E-09   2.5000E+01  0.000E+00  0.000E+00  0.000E+00  1.08924E+03  1.177E+00  1.302E+01  9.117E-10  1.392E+00
   1    3    3     1     3    2.5000E+01  3.2661E-09   2.5000E+01  0.000E+00  0.000E+00  0.000E+00  1.08360E+03  1.178E+00  1.303E+01  7.818E-10  1.393E+00
   1    3    4     1     4    2.5000E+01  3.0219E-09   2.5000E+01  0.000E+00  0.000E+00  0.000E+00  1.07859E+03  1.178E+00  1.303E+01  7.233E-10  1.393E+00
   1    4    5     2     1    1.5000E+01  3.0290E-01   1.4697E+01  0.000E+00  0.000E+00  0.000E+00  1.07282E+03  8.834E-01  1.200E+01  7.800E-02  1.294E+00
   1    5    6     2     2    1.4697E+01  2.3243E-01   1.4465E+01  0.000E+00  0.000E+00  0.000E+00  1.06738E+03  8.738E-01  1.200E+01  6.000E-02  1.291E+00
   1    6    6     2     3    1.4465E+01  2.3193E-01   1.4233E+01  0.000E+00  0.000E+00  0.000E+00  1.06266E+03  8.654E-01  1.200E+01  6.000E-02  1.288E+00
   1    7    6     2     4    1.4233E+01  2.3142E-01   1.4001E+01  0.000E+00  0.000E+00  0.000E+00  1.05793E+03  8.570E-01  1.200E+01  6.000E-02  1.286E+00
   1    8    6     2     5    1.4001E+01  2.3091E-01   1.3770E+01  0.000E+00  0.000E+00  0.000E+00  1.05321E+03  8.486E-01  1.200E+01  6.000E-02  1.283E+00
   1    3    5     3     1    1.0000E+01  2.8252E-01   9.7175E+00  0.000E+00  0.000E+00  0.000E+00  1.07555E+03  1.909E+00  9.636E+00  7.227E-02  1.955E+00
   1    3    6     3     2    9.7175E+00  2.4905E-01   9.4684E+00  0.000E+00  0.000E+00  0.000E+00  1.07264E+03  1.727E+00  8.909E+00  6.682E-02  1.864E+00
   1    3    7     3     3    9.4684E+00  1.9718E-01   9.2712E+00  0.000E+00  0.000E+00  0.000E+00  1.06987E+03  1.555E+00  8.218E+00  5.547E-02  1.777E+00
   1    4    8     3     4    9.2712E+00  2.2567E-01   9.0456E+00  0.000E+00  0.000E+00  0.000E+00  1.06682E+03  1.364E+00  7.455E+00  6.709E-02  1.682E+00
   1    5    8     3     5    9.0456E+00  1.5790E-01   8.8877E+00  0.000E+00  0.000E+00  0.000E+00  1.06362E+03  1.164E+00  6.655E+00  4.991E-02  1.582E+00
   1    6    8     3     6    8.8877E+00  5.5980E-02   8.8317E+00  0.000E+00  0.000E+00  0.000E+00  1.06158E+03  1.036E+00  6.145E+00  1.844E-02  1.518E+00
   1    5   10     4     1    1.0000E+01  9.0919E-02   9.9091E+00  0.000E+00  0.000E+00  0.000E+00  1.07836E+03  6.368E-01  1.000E+01  2.500E-02  1.212E+00
   1    5    9     4     2    9.9091E+00  1.8158E-01   9.7275E+00  0.000E+00  0.000E+00  0.000E+00  1.07154E+03  6.315E-01  1.000E+01  5.000E-02  1.211E+00
   1    6    8     4     3    9.7275E+00  1.2689E-01   9.6006E+00  0.000E+00  0.000E+00  0.000E+00  1.06381E+03  6.256E-01  1.000E+01  3.500E-02  1.209E+00
   1    6    8     5     1    1.8432E+01  3.3262E-09   1.8432E+01  0.000E+00  0.000E+00  0.000E+00  1.05883E+03  8.293E-01  2.172E+01  8.686E-10  1.276E+00
   1    7    7     5     2    1.8432E+01  4.1514E-09   1.8432E+01  0.000E+00  0.000E+00  0.000E+00  1.05433E+03  8.286E-01  2.169E+01  1.084E-09  1.276E+00
   1    8    7     5     3    1.8432E+01  2.9126E-09   1.8432E+01  0.000E+00  0.000E+00  0.000E+00  1.05008E+03  8.296E-01  2.173E+01  7.606E-10  1.277E+00
   1    8    6     5     4    1.8432E+01  2.0836E-09   1.8432E+01  0.000E+00  0.000E+00  0.000E+00  1.04708E+03  8.303E-01  2.176E+01  5.440E-10  1.277E+00
   1    9    6     6     1    3.2203E+01  2.6507E-01   3.1938E+01  0.000E+00  0.000E+00  0.000E+00  1.04415E+03  1.418E+00  1.200E+01  6.000E-02  1.473E+00
   1   10    7     6     2    3.1938E+01  2.6465E-01   3.1673E+01  0.000E+00  0.000E+00  0.000E+00  1.03959E+03  1.411E+00  1.200E+01  6.000E-02  1.470E+00
   1   11    7     6     3    3.1673E+01  2.6423E-01   3.1409E+01  0.000E+00  0.000E+00  0.000E+00  1.03504E+03  1.404E+00  1.200E+01  6.000E-02  1.468E+00
   1   12    7     6     4    3.1409E+01  2.6380E-01   3.1145E+01  0.000E+00  0.000E+00  0.000E+00  1.03049E+03  1.397E+00  1.200E+01  6.000E-02  1.466E+00
   1   13    7     6     5    3.1145E+01  1.0540E-01   3.1040E+01  0.000E+00  0.000E+00  0.000E+00  1.02730E+03  1.392E+00  1.200E+01  2.400E-02  1.464E+00
   1   14    9     7     1    1.5000E+02  2.9539E-14   1.5000E+02  0.000E+00  0.000E+00  0.000E+00  1.03986E+03  2.283E+00  5.528E+01  5.591E-15  1.761E+00
   1   13    8     7     2    1.5000E+02  3.2486E-13   1.5000E+02  0.000E+00  0.000E+00  0.000E+00  1.03478E+03  2.283E+00  5.527E+01  6.150E-14  1.761E+00
   1   13    7     7     3    1.5000E+02  2.9539E-14   1.5000E+02  0.000E+00  0.000E+00  0.000E+00  1.02970E+03  2.283E+00  5.528E+01  5.591E-15  1.761E+00
   1   13    6     8     1    1.8104E+02  0.0000E+00   1.8104E+02  0.000E+00  0.000E+00  0.000E+00  1.02490E+03  3.023E+00  4.383E+01  0.000E+00  2.008E+00
   1   13    5     8     2    1.8104E+02  2.6787E-12   1.8104E+02  0.000E+00  0.000E+00  0.000E+00  1.01864E+03  3.014E+00  4.371E+01  4.454E-13  2.005E+00
   1   13    4     8     3    1.8104E+02  2.6787E-12   1.8104E+02  0.000E+00  0.000E+00  0.000E+00  1.01239E+03  3.014E+00  4.371E+01  4.454E-13  2.005E+00
   1   13    3     8     4    1.8104E+02  2.6787E-12   1.8104E+02  0.000E+00  0.000E+00  0.000E+00  1.00614E+03  3.014E+00  4.371E+01  4.454E-13  2.005E+00
   1   13    2     8     5    1.8104E+02  2.6787E-12   1.8104E+02  0.000E+00  0.000E+00  0.000E+00  9.99889E+02  3.014E+00  4.371E+01  4.454E-13  2.005E+00
   1   13    1     8     6    1.8104E+02  1.6099E-08   1.8104E+02  0.000E+00  0.000E+00  0.000E+00  9.94893E+02  3.018E+00  4.376E+01  2.675E-09  2.006E+00



 UBDSV3 SAVING "     NETRECHARGE" ON UNIT 100 AT TIME STEP 15, STRESS PERIOD   5
 UBDSV3 SAVING "    NETDISCHARGE" ON UNIT 101 AT TIME STEP 15, STRESS PERIOD   5
 UBDSV3 SAVING "           GW ET" ON UNIT  61 AT TIME STEP 15, STRESS PERIOD   5
 UBDSV3 SAVING "    UZF RECHARGE" ON UNIT  61 AT TIME STEP 15, STRESS PERIOD   5
 UBDSV3 SAVING " SURFACE LEAKAGE" ON UNIT  61 AT TIME STEP 15, STRESS PERIOD   5
 UBDSV3 SAVING "       HORT+DUNN" ON UNIT  61 AT TIME STEP 15, STRESS PERIOD   5
 UBDSV3 SAVING "  STORAGE CHANGE" ON UNIT  61 AT TIME STEP 15, STRESS PERIOD   5


UNSATURATED ZONE PACKAGE VOLUMETRIC BUDGET FOR  TIME STEP    15 STRESS PERIOD    5
  ------------------------------------------------------------------------------



     CUMULATIVE VOLUMES      L**3       RATES FOR THIS TIME STEP      L**3/T
     ------------------                 ------------------------

           IN:                                      IN:
           ---                                      ---
        INFILTRATION =    38105996.7148          INFILTRATION =           2.9000

          OUT:                                     OUT:
          ----                                     ----
              UZF ET =     7852951.1033                UZF ET =           1.1749
        UZF RECHARGE =     7621246.6355          UZF RECHARGE =       0.0000E+00

            IN - OUT =    22631798.9761              IN - OUT =           1.7251

          STORAGE:                                 STORAGE:
          --------                                 --------
      STORAGE CHANGE =    22631798.9873        STORAGE CHANGE =           1.7251

 PERCENT DISCREPANCY IS DIFFERENCE BETWEEN IN-OUT MINUS CHANGE IN STORAGE
 DIVIDED BY THE AVERAGE OF IN AND OUT TIMES 100

 PERCENT DISCREPANCY =           0.00     PERCENT DISCREPANCY =           0.00






1
  VOLUMETRIC BUDGET FOR ENTIRE MODEL AT END OF TIME STEP   15, STRESS PERIOD   5
  ------------------------------------------------------------------------------

     CUMULATIVE VOLUMES      L**3       RATES FOR THIS TIME STEP      L**3/T
     ------------------                 ------------------------

           IN:                                      IN:
           ---                                      ---
             STORAGE =   319601952.0000               STORAGE =          22.9088
       CONSTANT HEAD =           0.0000         CONSTANT HEAD =           0.0000
               WELLS =           0.0000                 WELLS =           0.0000
     HEAD DEP BOUNDS =    41091516.0000       HEAD DEP BOUNDS =           3.1296
      STREAM LEAKAGE =    52155216.0000        STREAM LEAKAGE =           3.9604
        UZF RECHARGE =     7621252.0000          UZF RECHARGE =           0.0000
               GW ET =           0.0000                 GW ET =           0.0000
     SURFACE LEAKAGE =           0.0000       SURFACE LEAKAGE =           0.0000

            TOTAL IN =   420469952.0000              TOTAL IN =          29.9988

          OUT:                                     OUT:
          ----                                     ----
             STORAGE =        3107.9111               STORAGE =           0.0000
       CONSTANT HEAD =           0.0000         CONSTANT HEAD =           0.0000
               WELLS =   420480000.0000                 WELLS =          30.0000
     HEAD DEP BOUNDS =           0.0000       HEAD DEP BOUNDS =           0.0000
      STREAM LEAKAGE =           0.0000        STREAM LEAKAGE =           0.0000
        UZF RECHARGE =           0.0000          UZF RECHARGE =           0.0000
               GW ET =           0.0000                 GW ET =           0.0000
     SURFACE LEAKAGE =           0.0000       SURFACE LEAKAGE =           0.0000

           TOTAL OUT =   420483104.0000             TOTAL OUT =          30.0000

            IN - OUT =      -13152.0000              IN - OUT =      -1.1578E-03

 PERCENT DISCREPANCY =          -0.00     PERCENT DISCREPANCY =          -0.00






         TIME SUMMARY AT END OF TIME STEP   15 IN STRESS PERIOD    5
                    SECONDS     MINUTES      HOURS       DAYS        YEARS
                    -----------------------------------------------------------
   TIME STEP LENGTH 3.14103E+05  5235.0      87.251      3.6354     9.95332E-03
 STRESS PERIOD TIME 2.62800E+06  43800.      730.00      30.417     8.32763E-02
         TOTAL TIME 1.31400E+07 2.19000E+05  3650.0      152.08     0.41638    
1
1
                            STRESS PERIOD NO.    6, LENGTH =   2628000.    
                            -----------------------------------------------

                              NUMBER OF TIME STEPS =    15

                               MULTIPLIER FOR DELT =     1.100

                            INITIAL TIME STEP SIZE =   82713.07    

      0 WELLS

 REUSING NON-PARAMETER GHB CELLS FROM LAST STRESS PERIOD

      2 GHB CELLS

 REUSING STREAM SEGMENT DATA FROM LAST STRESS PERIOD



            AREAL INFILTRATION RATE
 READING ON UNIT   19 WITH FORMAT: (10F4.0)            

            1           2           3           4           5           6           7           8           9          10
 ........................................................................................................................
   1   1.0000E-08  2.0000E-08   0.000       0.000       0.000       0.000       0.000       0.000       0.000       0.000    
   2   2.0000E-08  1.0000E-08  2.0000E-08   0.000       0.000      8.0000E-08  8.0000E-08  5.0000E-08   0.000       0.000    
   3    0.000      5.0000E-08  1.0000E-08  1.0000E-08  8.0000E-08  8.0000E-08  5.0000E-08  5.0000E-08   0.000       0.000    
   4   8.0000E-08  5.0000E-08  1.0000E-08  1.0000E-08  1.0000E-08  1.0000E-08  1.0000E-08  1.0000E-08  2.0000E-08   0.000    
   5   8.0000E-08  5.0000E-08  1.0000E-08  1.0000E-08  1.0000E-08  1.0000E-08  1.0000E-08  1.0000E-08  1.0000E-08  1.0000E-08
   6   8.0000E-08  5.0000E-08  5.0000E-08  2.0000E-08  2.0000E-08  1.0000E-08  1.0000E-08  1.0000E-08  1.0000E-08  5.0000E-08
   7   8.0000E-08  5.0000E-08  5.0000E-08  2.0000E-08  2.0000E-08  1.0000E-08  1.0000E-08  2.0000E-08  2.0000E-08   0.000    
   8    0.000      5.0000E-08  5.0000E-08  2.0000E-08  2.0000E-08  1.0000E-08  1.0000E-08  2.0000E-08  5.0000E-08   0.000    
   9    0.000      5.0000E-08  5.0000E-08  2.0000E-08  2.0000E-08  1.0000E-08  1.0000E-08  2.0000E-08  5.0000E-08   0.000    
  10    0.000      5.0000E-08  5.0000E-08  2.0000E-08  2.0000E-08  1.0000E-08  1.0000E-08  2.0000E-08  5.0000E-08  8.0000E-08
  11    0.000      1.0000E-08  1.0000E-08  1.0000E-08  1.0000E-08  1.0000E-08  1.0000E-08  2.0000E-08  5.0000E-08   0.000    
  12   1.0000E-08  1.0000E-08  1.0000E-08  1.0000E-08  1.0000E-08  1.0000E-08  1.0000E-08  1.0000E-08  2.0000E-08   0.000    
  13   1.0000E-08  1.0000E-08  2.0000E-08  2.0000E-08  2.0000E-08  2.0000E-08  2.0000E-08  1.0000E-08  1.0000E-08   0.000    
  14    0.000      2.0000E-08  5.0000E-08  5.0000E-08  5.0000E-08  5.0000E-08  5.0000E-08  2.0000E-08  1.0000E-08   0.000    
  15    0.000       0.000      8.0000E-08  8.0000E-08  8.0000E-08  8.0000E-08   0.000       0.000       0.000       0.000    

USING ET RATE FROM PREVIOUS STRESS PERIOD. CURRENT PERIOD IS:       6

 USING ET EXTINCTION DEPTH FROM PREVIOUS STRESS PERIOD. CURRENT PERIOD IS:       6

 USING EXTINCTION WATER CONTENT FROM PREVIOUS STRESS PERIOD. CURRENT PERIOD IS:       6
 
 SOLVING FOR HEAD 
                                                   Max.-Head-Change                         Max.-Flux-Residual
  Residual-Control   Outer-Iter.   Inner-Iter.     Column Row Layer    Maximum-Head-Change  Column Row Layer    Maximum-Flux-Residual          L2-NORM 
          0                 1           2             5    6     1       0.4452847776E-01       5    6    1         0.2522918474E+01      0.7954109390E+01
          0                 2           2             5    6     1      -0.4412352385E-02       5    6    1        -0.2522907722E+00      0.7954079039E+00
          0                 3           2             5    6     1       0.3935051215E-03       5    6    1         0.2270618288E-01      0.7158675003E-01
          0                 4           1             5    6     1      -0.3123375191E-04       5    6    1        -0.1818765632E-02      0.5734099906E-02

    ------------------------------------------------
       NWT REQUIRED            4 OUTER ITERATIONS 
       AND A TOTAL OF          7 INNER ITERATIONS.
    ------------------------------------------------

 NO OUTPUT CONTROL FOR STRESS PERIOD    6   TIME STEP    1
 
 SOLVING FOR HEAD 
                                                   Max.-Head-Change                         Max.-Flux-Residual
  Residual-Control   Outer-Iter.   Inner-Iter.     Column Row Layer    Maximum-Head-Change  Column Row Layer    Maximum-Flux-Residual          L2-NORM 
          0                 1           2             4   10     1       0.4794310077E-01       5    6    1         0.2451990167E+01      0.7825958932E+01
          0                 2           2             4   10     1      -0.4750715885E-02       5    6    1        -0.2451977130E+00      0.7825924419E+00
          0                 3           2             4   10     1       0.4236811977E-03       5    6    1         0.2206780971E-01      0.7043336240E-01
          0                 4           1             4   10     1      -0.3362892379E-04       5    6    1        -0.1767631918E-02      0.5641713497E-02

    ------------------------------------------------
       NWT REQUIRED            4 OUTER ITERATIONS 
       AND A TOTAL OF          7 INNER ITERATIONS.
    ------------------------------------------------

 NO OUTPUT CONTROL FOR STRESS PERIOD    6   TIME STEP    2
 
 SOLVING FOR HEAD 
                                                   Max.-Head-Change                         Max.-Flux-Residual
  Residual-Control   Outer-Iter.   Inner-Iter.     Column Row Layer    Maximum-Head-Change  Column Row Layer    Maximum-Flux-Residual          L2-NORM 
          0                 1           2             4   10     1       0.5164656805E-01       4   10    1         0.2399063669E+01      0.7679663144E+01
          0                 2           2             4   10     1      -0.5117693604E-02       4   10    1        -0.2399056781E+00      0.7679625398E+00
          0                 3           2             4   10     1       0.4564092401E-03       4   10    1         0.2159152048E-01      0.6911667423E-01
          0                 4           1             4   10     1      -0.3622665248E-04       4   10    1        -0.1729481175E-02      0.5536246723E-02

    ------------------------------------------------
       NWT REQUIRED            4 OUTER ITERATIONS 
       AND A TOTAL OF          7 INNER ITERATIONS.
    ------------------------------------------------

 NO OUTPUT CONTROL FOR STRESS PERIOD    6   TIME STEP    3
 
 SOLVING FOR HEAD 
                                                   Max.-Head-Change                         Max.-Flux-Residual
  Residual-Control   Outer-Iter.   Inner-Iter.     Column Row Layer    Maximum-Head-Change  Column Row Layer    Maximum-Flux-Residual          L2-NORM 
          0                 1           2             4   10     1       0.5553225075E-01       4   10    1         0.2349440622E+01      0.7526152187E+01
          0                 2           2             4   10     1      -0.5502726930E-02       4   10    1        -0.2349433012E+00      0.7526111590E+00
          0                 3           2             4   10     1       0.4907475305E-03       4   10    1         0.2114490721E-01      0.6773505257E-01
          0                 4           1             4   10     1      -0.3895219160E-04       4   10    1        -0.1693707437E-02      0.5425578782E-02

    ------------------------------------------------
       NWT REQUIRED            4 OUTER ITERATIONS 
       AND A TOTAL OF          7 INNER ITERATIONS.
    ------------------------------------------------

 NO OUTPUT CONTROL FOR STRESS PERIOD    6   TIME STEP    4
 
 SOLVING FOR HEAD 
                                                   Max.-Head-Change                         Max.-Flux-Residual
  Residual-Control   Outer-Iter.   Inner-Iter.     Column Row Layer    Maximum-Head-Change  Column Row Layer    Maximum-Flux-Residual          L2-NORM 
          0                 1           2             4    9     1       0.5972975823E-01       4   10    1         0.2296549935E+01      0.7365618623E+01
          0                 2           2             4    9     1      -0.5918681565E-02       4   10    1        -0.2296541658E+00      0.7365575778E+00
          0                 3           2             4    9     1       0.5278432418E-03       4   10    1         0.2066888561E-01      0.6629023230E-01
          0                 4           1             4    9     1      -0.4189659775E-04       4   10    1        -0.1655578081E-02      0.5309848626E-02

    ------------------------------------------------
       NWT REQUIRED            4 OUTER ITERATIONS 
       AND A TOTAL OF          7 INNER ITERATIONS.
    ------------------------------------------------

 OUTPUT CONTROL FOR STRESS PERIOD    6   TIME STEP    5
    PRINT BUDGET
    SAVE BUDGET

  HEAD DEP BOUNDS   PERIOD    6   STEP   5
 BOUNDARY      1   LAYER   1   ROW    13   COL     1   RATE    0.759884    
 BOUNDARY      2   LAYER   1   ROW    14   COL     9   RATE     2.36992    



 STREAM LISTING     PERIOD      6   STEP        5

 LAYER ROW COL. STREAM  RCH.  FLOW INTO     FLOW TO   FLOW OUT OF   OVRLND.     DIRECT     STREAM       STREAM     STREAM     STREAM   STREAMBED  STREAMBED
                SEG.NO.  NO.  STRM. RCH.    AQUIFER    STRM. RCH.    RUNOFF     PRECIP       ET          HEAD       DEPTH      WIDTH   CONDCTNC.   GRADIENT

   1    1    1     1     1    2.5000E+01  2.4515E-09   2.5000E+01  0.000E+00  0.000E+00  0.000E+00  1.09423E+03  1.178E+00  1.304E+01  5.867E-10  1.393E+00
   1    2    2     1     2    2.5000E+01  3.8085E-09   2.5000E+01  0.000E+00  0.000E+00  0.000E+00  1.08924E+03  1.177E+00  1.302E+01  9.117E-10  1.392E+00
   1    3    3     1     3    2.5000E+01  3.2661E-09   2.5000E+01  0.000E+00  0.000E+00  0.000E+00  1.08360E+03  1.178E+00  1.303E+01  7.818E-10  1.393E+00
   1    3    4     1     4    2.5000E+01  3.0219E-09   2.5000E+01  0.000E+00  0.000E+00  0.000E+00  1.07859E+03  1.178E+00  1.303E+01  7.233E-10  1.393E+00
   1    4    5     2     1    1.5000E+01  3.0290E-01   1.4697E+01  0.000E+00  0.000E+00  0.000E+00  1.07282E+03  8.834E-01  1.200E+01  7.800E-02  1.294E+00
   1    5    6     2     2    1.4697E+01  2.3243E-01   1.4465E+01  0.000E+00  0.000E+00  0.000E+00  1.06738E+03  8.738E-01  1.200E+01  6.000E-02  1.291E+00
   1    6    6     2     3    1.4465E+01  2.3193E-01   1.4233E+01  0.000E+00  0.000E+00  0.000E+00  1.06266E+03  8.654E-01  1.200E+01  6.000E-02  1.288E+00
   1    7    6     2     4    1.4233E+01  2.3142E-01   1.4001E+01  0.000E+00  0.000E+00  0.000E+00  1.05793E+03  8.570E-01  1.200E+01  6.000E-02  1.286E+00
   1    8    6     2     5    1.4001E+01  2.3091E-01   1.3770E+01  0.000E+00  0.000E+00  0.000E+00  1.05321E+03  8.486E-01  1.200E+01  6.000E-02  1.283E+00
   1    3    5     3     1    1.0000E+01  2.8252E-01   9.7175E+00  0.000E+00  0.000E+00  0.000E+00  1.07555E+03  1.909E+00  9.636E+00  7.227E-02  1.955E+00
   1    3    6     3     2    9.7175E+00  2.4905E-01   9.4684E+00  0.000E+00  0.000E+00  0.000E+00  1.07264E+03  1.727E+00  8.909E+00  6.682E-02  1.864E+00
   1    3    7     3     3    9.4684E+00  1.9718E-01   9.2712E+00  0.000E+00  0.000E+00  0.000E+00  1.06987E+03  1.555E+00  8.218E+00  5.547E-02  1.777E+00
   1    4    8     3     4    9.2712E+00  2.2567E-01   9.0456E+00  0.000E+00  0.000E+00  0.000E+00  1.06682E+03  1.364E+00  7.455E+00  6.709E-02  1.682E+00
   1    5    8     3     5    9.0456E+00  1.5790E-01   8.8877E+00  0.000E+00  0.000E+00  0.000E+00  1.06362E+03  1.164E+00  6.655E+00  4.991E-02  1.582E+00
   1    6    8     3     6    8.8877E+00  5.5980E-02   8.8317E+00  0.000E+00  0.000E+00  0.000E+00  1.06158E+03  1.036E+00  6.145E+00  1.844E-02  1.518E+00
   1    5   10     4     1    1.0000E+01  9.0919E-02   9.9091E+00  0.000E+00  0.000E+00  0.000E+00  1.07836E+03  6.368E-01  1.000E+01  2.500E-02  1.212E+00
   1    5    9     4     2    9.9091E+00  1.8158E-01   9.7275E+00  0.000E+00  0.000E+00  0.000E+00  1.07154E+03  6.315E-01  1.000E+01  5.000E-02  1.211E+00
   1    6    8     4     3    9.7275E+00  1.2689E-01   9.6006E+00  0.000E+00  0.000E+00  0.000E+00  1.06381E+03  6.256E-01  1.000E+01  3.500E-02  1.209E+00
   1    6    8     5     1    1.8432E+01  3.3262E-09   1.8432E+01  0.000E+00  0.000E+00  0.000E+00  1.05883E+03  8.293E-01  2.172E+01  8.686E-10  1.276E+00
   1    7    7     5     2    1.8432E+01  4.1514E-09   1.8432E+01  0.000E+00  0.000E+00  0.000E+00  1.05433E+03  8.286E-01  2.169E+01  1.084E-09  1.276E+00
   1    8    7     5     3    1.8432E+01  2.9126E-09   1.8432E+01  0.000E+00  0.000E+00  0.000E+00  1.05008E+03  8.296E-01  2.173E+01  7.606E-10  1.277E+00
   1    8    6     5     4    1.8432E+01  2.0836E-09   1.8432E+01  0.000E+00  0.000E+00  0.000E+00  1.04708E+03  8.303E-01  2.176E+01  5.440E-10  1.277E+00
   1    9    6     6     1    3.2203E+01  2.6507E-01   3.1938E+01  0.000E+00  0.000E+00  0.000E+00  1.04415E+03  1.418E+00  1.200E+01  6.000E-02  1.473E+00
   1   10    7     6     2    3.1938E+01  2.6465E-01   3.1673E+01  0.000E+00  0.000E+00  0.000E+00  1.03959E+03  1.411E+00  1.200E+01  6.000E-02  1.470E+00
   1   11    7     6     3    3.1673E+01  2.6423E-01   3.1409E+01  0.000E+00  0.000E+00  0.000E+00  1.03504E+03  1.404E+00  1.200E+01  6.000E-02  1.468E+00
   1   12    7     6     4    3.1409E+01  2.6380E-01   3.1145E+01  0.000E+00  0.000E+00  0.000E+00  1.03049E+03  1.397E+00  1.200E+01  6.000E-02  1.466E+00
   1   13    7     6     5    3.1145E+01  1.0540E-01   3.1040E+01  0.000E+00  0.000E+00  0.000E+00  1.02730E+03  1.392E+00  1.200E+01  2.400E-02  1.464E+00
   1   14    9     7     1    1.5000E+02  2.9539E-14   1.5000E+02  0.000E+00  0.000E+00  0.000E+00  1.03986E+03  2.283E+00  5.528E+01  5.591E-15  1.761E+00
   1   13    8     7     2    1.5000E+02  3.2486E-13   1.5000E+02  0.000E+00  0.000E+00  0.000E+00  1.03478E+03  2.283E+00  5.527E+01  6.150E-14  1.761E+00
   1   13    7     7     3    1.5000E+02  2.9539E-14   1.5000E+02  0.000E+00  0.000E+00  0.000E+00  1.02970E+03  2.283E+00  5.528E+01  5.591E-15  1.761E+00
   1   13    6     8     1    1.8104E+02  0.0000E+00   1.8104E+02  0.000E+00  0.000E+00  0.000E+00  1.02490E+03  3.023E+00  4.383E+01  0.000E+00  2.008E+00
   1   13    5     8     2    1.8104E+02  2.6787E-12   1.8104E+02  0.000E+00  0.000E+00  0.000E+00  1.01864E+03  3.014E+00  4.371E+01  4.454E-13  2.005E+00
   1   13    4     8     3    1.8104E+02  2.6787E-12   1.8104E+02  0.000E+00  0.000E+00  0.000E+00  1.01239E+03  3.014E+00  4.371E+01  4.454E-13  2.005E+00
   1   13    3     8     4    1.8104E+02  2.6787E-12   1.8104E+02  0.000E+00  0.000E+00  0.000E+00  1.00614E+03  3.014E+00  4.371E+01  4.454E-13  2.005E+00
   1   13    2     8     5    1.8104E+02  2.6787E-12   1.8104E+02  0.000E+00  0.000E+00  0.000E+00  9.99889E+02  3.014E+00  4.371E+01  4.454E-13  2.005E+00
   1   13    1     8     6    1.8104E+02  1.6099E-08   1.8104E+02  0.000E+00  0.000E+00  0.000E+00  9.94893E+02  3.018E+00  4.376E+01  2.675E-09  2.006E+00



 UBDSV3 SAVING "     NETRECHARGE" ON UNIT 100 AT TIME STEP  5, STRESS PERIOD   6
 UBDSV3 SAVING "    NETDISCHARGE" ON UNIT 101 AT TIME STEP  5, STRESS PERIOD   6
 UBDSV3 SAVING "           GW ET" ON UNIT  61 AT TIME STEP  5, STRESS PERIOD   6
 UBDSV3 SAVING "    UZF RECHARGE" ON UNIT  61 AT TIME STEP  5, STRESS PERIOD   6
 UBDSV3 SAVING " SURFACE LEAKAGE" ON UNIT  61 AT TIME STEP  5, STRESS PERIOD   6
 UBDSV3 SAVING "       HORT+DUNN" ON UNIT  61 AT TIME STEP  5, STRESS PERIOD   6
 UBDSV3 SAVING "  STORAGE CHANGE" ON UNIT  61 AT TIME STEP  5, STRESS PERIOD   6


UNSATURATED ZONE PACKAGE VOLUMETRIC BUDGET FOR  TIME STEP     5 STRESS PERIOD    6
  ------------------------------------------------------------------------------



     CUMULATIVE VOLUMES      L**3       RATES FOR THIS TIME STEP      L**3/T
     ------------------                 ------------------------

           IN:                                      IN:
           ---                                      ---
        INFILTRATION =    39570414.2744          INFILTRATION =           2.9000

          OUT:                                     OUT:
          ----                                     ----
              UZF ET =     8444682.5342                UZF ET =           1.1723
        UZF RECHARGE =     7621246.6355          UZF RECHARGE =       0.0000E+00

            IN - OUT =    23504485.1048              IN - OUT =           1.7277

          STORAGE:                                 STORAGE:
          --------                                 --------
      STORAGE CHANGE =    23504485.0962        STORAGE CHANGE =           1.7277

 PERCENT DISCREPANCY IS DIFFERENCE BETWEEN IN-OUT MINUS CHANGE IN STORAGE
 DIVIDED BY THE AVERAGE OF IN AND OUT TIMES 100

 PERCENT DISCREPANCY =           0.00     PERCENT DISCREPANCY =           0.00






1
  VOLUMETRIC BUDGET FOR ENTIRE MODEL AT END OF TIME STEP    5, STRESS PERIOD   6
  ------------------------------------------------------------------------------

     CUMULATIVE VOLUMES      L**3       RATES FOR THIS TIME STEP      L**3/T
     ------------------                 ------------------------

           IN:                                      IN:
           ---                                      ---
             STORAGE =   327400992.0000               STORAGE =          14.6854
       CONSTANT HEAD =           0.0000         CONSTANT HEAD =           0.0000
               WELLS =           0.0000                 WELLS =           0.0000
     HEAD DEP BOUNDS =    42671944.0000       HEAD DEP BOUNDS =           3.1298
      STREAM LEAKAGE =    54173804.0000        STREAM LEAKAGE =           3.9604
        UZF RECHARGE =     7621252.0000          UZF RECHARGE =           0.0000
               GW ET =           0.0000                 GW ET =           0.0000
     SURFACE LEAKAGE =           0.0000       SURFACE LEAKAGE =           0.0000

            TOTAL IN =   431867968.0000              TOTAL IN =          21.7757

          OUT:                                     OUT:
          ----                                     ----
             STORAGE =    11401007.0000               STORAGE =          21.7753
       CONSTANT HEAD =           0.0000         CONSTANT HEAD =           0.0000
               WELLS =   420480000.0000                 WELLS =           0.0000
     HEAD DEP BOUNDS =           0.0000       HEAD DEP BOUNDS =           0.0000
      STREAM LEAKAGE =           0.0000        STREAM LEAKAGE =           0.0000
        UZF RECHARGE =           0.0000          UZF RECHARGE =           0.0000
               GW ET =           0.0000                 GW ET =           0.0000
     SURFACE LEAKAGE =           0.0000       SURFACE LEAKAGE =           0.0000

           TOTAL OUT =   431880992.0000             TOTAL OUT =          21.7753

            IN - OUT =      -13024.0000              IN - OUT =       3.6240E-04

 PERCENT DISCREPANCY =          -0.00     PERCENT DISCREPANCY =           0.00






         TIME SUMMARY AT END OF TIME STEP    5 IN STRESS PERIOD    6
                    SECONDS     MINUTES      HOURS       DAYS        YEARS
                    -----------------------------------------------------------
   TIME STEP LENGTH 1.21100E+05  2018.3      33.639      1.4016     3.83743E-03
 STRESS PERIOD TIME 5.04972E+05  8416.2      140.27      5.8446     1.60016E-02
         TOTAL TIME 1.36450E+07 2.27416E+05  3790.3      157.93     0.43238    
1
 
 SOLVING FOR HEAD 
                                                   Max.-Head-Change                         Max.-Flux-Residual
  Residual-Control   Outer-Iter.   Inner-Iter.     Column Row Layer    Maximum-Head-Change  Column Row Layer    Maximum-Flux-Residual          L2-NORM 
          0                 1           2             4    9     1       0.6518360599E-01       4    9    1         0.2245333657E+01      0.7198325786E+01
          0                 2           2             4    9     1      -0.6459114944E-02       4    9    1        -0.2245339476E+00      0.7198281551E+00
          0                 3           2             4    9     1       0.5760404195E-03       4    9    1         0.2020805209E-01      0.6478458543E-01
          0                 4           1             4    9     1      -0.4572216121E-04       4    9    1        -0.1618665423E-02      0.5189246260E-02

    ------------------------------------------------
       NWT REQUIRED            4 OUTER ITERATIONS 
       AND A TOTAL OF          7 INNER ITERATIONS.
    ------------------------------------------------

 NO OUTPUT CONTROL FOR STRESS PERIOD    6   TIME STEP    6
 
 SOLVING FOR HEAD 
                                                   Max.-Head-Change                         Max.-Flux-Residual
  Residual-Control   Outer-Iter.   Inner-Iter.     Column Row Layer    Maximum-Head-Change  Column Row Layer    Maximum-Flux-Residual          L2-NORM 
          0                 1           2             4    9     1       0.7103423777E-01       4    9    1         0.2227589367E+01      0.7024613694E+01
          0                 2           2             4    9     1      -0.7038869535E-02       4    9    1        -0.2227598909E+00      0.7024569206E+00
          0                 3           2             4    9     1       0.6277443287E-03       4    9    1         0.2004838329E-01      0.6322117438E-01
          0                 4           1             4    9     1      -0.4982606603E-04       4    9    1        -0.1605875985E-02      0.5064017004E-02

    ------------------------------------------------
       NWT REQUIRED            4 OUTER ITERATIONS 
       AND A TOTAL OF          7 INNER ITERATIONS.
    ------------------------------------------------

 NO OUTPUT CONTROL FOR STRESS PERIOD    6   TIME STEP    7
 
 SOLVING FOR HEAD 
                                                   Max.-Head-Change                         Max.-Flux-Residual
  Residual-Control   Outer-Iter.   Inner-Iter.     Column Row Layer    Maximum-Head-Change  Column Row Layer    Maximum-Flux-Residual          L2-NORM 
          0                 1           2             4    9     1       0.7728480986E-01       4    9    1         0.2206848191E+01      0.6844884018E+01
          0                 2           2             4    9     1      -0.7658259406E-02       4    9    1        -0.2206862575E+00      0.6844840720E+00
          0                 3           2             4    9     1       0.6829829671E-03       4    9    1         0.1986175151E-01      0.6160361664E-01
          0                 4           1             4    9     1      -0.5421053334E-04       4    9    1        -0.1590926812E-02      0.4934450608E-02

    ------------------------------------------------
       NWT REQUIRED            4 OUTER ITERATIONS 
       AND A TOTAL OF          7 INNER ITERATIONS.
    ------------------------------------------------

 NO OUTPUT CONTROL FOR STRESS PERIOD    6   TIME STEP    8
 
 SOLVING FOR HEAD 
                                                   Max.-Head-Change                         Max.-Flux-Residual
  Residual-Control   Outer-Iter.   Inner-Iter.     Column Row Layer    Maximum-Head-Change  Column Row Layer    Maximum-Flux-Residual          L2-NORM 
          0                 1           2             4    9     1       0.8393134946E-01       4    9    1         0.2182761355E+01      0.6659608904E+01
          0                 2           2             4    9     1      -0.8316892521E-02       4    9    1        -0.2182781879E+00      0.6659568545E+00
          0                 3           2             4    9     1       0.7417213550E-03       4    9    1         0.1964501919E-01      0.5993616398E-01
          0                 4           1             4    9     1      -0.5887278802E-04       4    9    1        -0.1573566602E-02      0.4800887640E-02

    ------------------------------------------------
       NWT REQUIRED            4 OUTER ITERATIONS 
       AND A TOTAL OF          7 INNER ITERATIONS.
    ------------------------------------------------

 NO OUTPUT CONTROL FOR STRESS PERIOD    6   TIME STEP    9
 
 SOLVING FOR HEAD 
                                                   Max.-Head-Change                         Max.-Flux-Residual
  Residual-Control   Outer-Iter.   Inner-Iter.     Column Row Layer    Maximum-Head-Change  Column Row Layer    Maximum-Flux-Residual          L2-NORM 
          0                 1           2             4    9     1       0.9096185115E-01       4    9    1         0.2154984896E+01      0.6469296698E+01
          0                 2           2             4    9     1      -0.9013581249E-02       4    9    1        -0.2155013028E+00      0.6469261328E+00
          0                 3           2             4    9     1       0.8038535565E-03       4    9    1         0.1939509204E-01      0.5822339391E-01
          0                 4           1             4    9     1      -0.6380442082E-04       4    9    1        -0.1553547488E-02      0.4663694764E-02

    ------------------------------------------------
       NWT REQUIRED            4 OUTER ITERATIONS 
       AND A TOTAL OF          7 INNER ITERATIONS.
    ------------------------------------------------

 OUTPUT CONTROL FOR STRESS PERIOD    6   TIME STEP   10
    PRINT BUDGET
    SAVE BUDGET

  HEAD DEP BOUNDS   PERIOD    6   STEP  10
 BOUNDARY      1   LAYER   1   ROW    13   COL     1   RATE    0.760044    
 BOUNDARY      2   LAYER   1   ROW    14   COL     9   RATE     2.37008    



 STREAM LISTING     PERIOD      6   STEP       10

 LAYER ROW COL. STREAM  RCH.  FLOW INTO     FLOW TO   FLOW OUT OF   OVRLND.     DIRECT     STREAM       STREAM     STREAM     STREAM   STREAMBED  STREAMBED
                SEG.NO.  NO.  STRM. RCH.    AQUIFER    STRM. RCH.    RUNOFF     PRECIP       ET          HEAD       DEPTH      WIDTH   CONDCTNC.   GRADIENT

   1    1    1     1     1    2.5000E+01  2.4515E-09   2.5000E+01  0.000E+00  0.000E+00  0.000E+00  1.09423E+03  1.178E+00  1.304E+01  5.867E-10  1.393E+00
   1    2    2     1     2    2.5000E+01  3.8085E-09   2.5000E+01  0.000E+00  0.000E+00  0.000E+00  1.08924E+03  1.177E+00  1.302E+01  9.117E-10  1.392E+00
   1    3    3     1     3    2.5000E+01  3.2661E-09   2.5000E+01  0.000E+00  0.000E+00  0.000E+00  1.08360E+03  1.178E+00  1.303E+01  7.818E-10  1.393E+00
   1    3    4     1     4    2.5000E+01  3.0219E-09   2.5000E+01  0.000E+00  0.000E+00  0.000E+00  1.07859E+03  1.178E+00  1.303E+01  7.233E-10  1.393E+00
   1    4    5     2     1    1.5000E+01  3.0290E-01   1.4697E+01  0.000E+00  0.000E+00  0.000E+00  1.07282E+03  8.834E-01  1.200E+01  7.800E-02  1.294E+00
   1    5    6     2     2    1.4697E+01  2.3243E-01   1.4465E+01  0.000E+00  0.000E+00  0.000E+00  1.06738E+03  8.738E-01  1.200E+01  6.000E-02  1.291E+00
   1    6    6     2     3    1.4465E+01  2.3193E-01   1.4233E+01  0.000E+00  0.000E+00  0.000E+00  1.06266E+03  8.654E-01  1.200E+01  6.000E-02  1.288E+00
   1    7    6     2     4    1.4233E+01  2.3142E-01   1.4001E+01  0.000E+00  0.000E+00  0.000E+00  1.05793E+03  8.570E-01  1.200E+01  6.000E-02  1.286E+00
   1    8    6     2     5    1.4001E+01  2.3091E-01   1.3770E+01  0.000E+00  0.000E+00  0.000E+00  1.05321E+03  8.486E-01  1.200E+01  6.000E-02  1.283E+00
   1    3    5     3     1    1.0000E+01  2.8252E-01   9.7175E+00  0.000E+00  0.000E+00  0.000E+00  1.07555E+03  1.909E+00  9.636E+00  7.227E-02  1.955E+00
   1    3    6     3     2    9.7175E+00  2.4905E-01   9.4684E+00  0.000E+00  0.000E+00  0.000E+00  1.07264E+03  1.727E+00  8.909E+00  6.682E-02  1.864E+00
   1    3    7     3     3    9.4684E+00  1.9718E-01   9.2712E+00  0.000E+00  0.000E+00  0.000E+00  1.06987E+03  1.555E+00  8.218E+00  5.547E-02  1.777E+00
   1    4    8     3     4    9.2712E+00  2.2567E-01   9.0456E+00  0.000E+00  0.000E+00  0.000E+00  1.06682E+03  1.364E+00  7.455E+00  6.709E-02  1.682E+00
   1    5    8     3     5    9.0456E+00  1.5790E-01   8.8877E+00  0.000E+00  0.000E+00  0.000E+00  1.06362E+03  1.164E+00  6.655E+00  4.991E-02  1.582E+00
   1    6    8     3     6    8.8877E+00  5.5980E-02   8.8317E+00  0.000E+00  0.000E+00  0.000E+00  1.06158E+03  1.036E+00  6.145E+00  1.844E-02  1.518E+00
   1    5   10     4     1    1.0000E+01  9.0919E-02   9.9091E+00  0.000E+00  0.000E+00  0.000E+00  1.07836E+03  6.368E-01  1.000E+01  2.500E-02  1.212E+00
   1    5    9     4     2    9.9091E+00  1.8158E-01   9.7275E+00  0.000E+00  0.000E+00  0.000E+00  1.07154E+03  6.315E-01  1.000E+01  5.000E-02  1.211E+00
   1    6    8     4     3    9.7275E+00  1.2689E-01   9.6006E+00  0.000E+00  0.000E+00  0.000E+00  1.06381E+03  6.256E-01  1.000E+01  3.500E-02  1.209E+00
   1    6    8     5     1    1.8432E+01  3.3262E-09   1.8432E+01  0.000E+00  0.000E+00  0.000E+00  1.05883E+03  8.293E-01  2.172E+01  8.686E-10  1.276E+00
   1    7    7     5     2    1.8432E+01  4.1514E-09   1.8432E+01  0.000E+00  0.000E+00  0.000E+00  1.05433E+03  8.286E-01  2.169E+01  1.084E-09  1.276E+00
   1    8    7     5     3    1.8432E+01  2.9126E-09   1.8432E+01  0.000E+00  0.000E+00  0.000E+00  1.05008E+03  8.296E-01  2.173E+01  7.606E-10  1.277E+00
   1    8    6     5     4    1.8432E+01  2.0836E-09   1.8432E+01  0.000E+00  0.000E+00  0.000E+00  1.04708E+03  8.303E-01  2.176E+01  5.440E-10  1.277E+00
   1    9    6     6     1    3.2203E+01  2.6507E-01   3.1938E+01  0.000E+00  0.000E+00  0.000E+00  1.04415E+03  1.418E+00  1.200E+01  6.000E-02  1.473E+00
   1   10    7     6     2    3.1938E+01  2.6465E-01   3.1673E+01  0.000E+00  0.000E+00  0.000E+00  1.03959E+03  1.411E+00  1.200E+01  6.000E-02  1.470E+00
   1   11    7     6     3    3.1673E+01  2.6423E-01   3.1409E+01  0.000E+00  0.000E+00  0.000E+00  1.03504E+03  1.404E+00  1.200E+01  6.000E-02  1.468E+00
   1   12    7     6     4    3.1409E+01  2.6380E-01   3.1145E+01  0.000E+00  0.000E+00  0.000E+00  1.03049E+03  1.397E+00  1.200E+01  6.000E-02  1.466E+00
   1   13    7     6     5    3.1145E+01  1.0540E-01   3.1040E+01  0.000E+00  0.000E+00  0.000E+00  1.02730E+03  1.392E+00  1.200E+01  2.400E-02  1.464E+00
   1   14    9     7     1    1.5000E+02  2.9539E-14   1.5000E+02  0.000E+00  0.000E+00  0.000E+00  1.03986E+03  2.283E+00  5.528E+01  5.591E-15  1.761E+00
   1   13    8     7     2    1.5000E+02  3.2486E-13   1.5000E+02  0.000E+00  0.000E+00  0.000E+00  1.03478E+03  2.283E+00  5.527E+01  6.150E-14  1.761E+00
   1   13    7     7     3    1.5000E+02  2.9539E-14   1.5000E+02  0.000E+00  0.000E+00  0.000E+00  1.02970E+03  2.283E+00  5.528E+01  5.591E-15  1.761E+00
   1   13    6     8     1    1.8104E+02  0.0000E+00   1.8104E+02  0.000E+00  0.000E+00  0.000E+00  1.02490E+03  3.023E+00  4.383E+01  0.000E+00  2.008E+00
   1   13    5     8     2    1.8104E+02  2.6787E-12   1.8104E+02  0.000E+00  0.000E+00  0.000E+00  1.01864E+03  3.014E+00  4.371E+01  4.454E-13  2.005E+00
   1   13    4     8     3    1.8104E+02  2.6787E-12   1.8104E+02  0.000E+00  0.000E+00  0.000E+00  1.01239E+03  3.014E+00  4.371E+01  4.454E-13  2.005E+00
   1   13    3     8     4    1.8104E+02  2.6787E-12   1.8104E+02  0.000E+00  0.000E+00  0.000E+00  1.00614E+03  3.014E+00  4.371E+01  4.454E-13  2.005E+00
   1   13    2     8     5    1.8104E+02  2.6787E-12   1.8104E+02  0.000E+00  0.000E+00  0.000E+00  9.99889E+02  3.014E+00  4.371E+01  4.454E-13  2.005E+00
   1   13    1     8     6    1.8104E+02  1.6099E-08   1.8104E+02  0.000E+00  0.000E+00  0.000E+00  9.94893E+02  3.018E+00  4.376E+01  2.675E-09  2.006E+00



 UBDSV3 SAVING "     NETRECHARGE" ON UNIT 100 AT TIME STEP 10, STRESS PERIOD   6
 UBDSV3 SAVING "    NETDISCHARGE" ON UNIT 101 AT TIME STEP 10, STRESS PERIOD   6
 UBDSV3 SAVING "           GW ET" ON UNIT  61 AT TIME STEP 10, STRESS PERIOD   6
 UBDSV3 SAVING "    UZF RECHARGE" ON UNIT  61 AT TIME STEP 10, STRESS PERIOD   6
 UBDSV3 SAVING " SURFACE LEAKAGE" ON UNIT  61 AT TIME STEP 10, STRESS PERIOD   6
 UBDSV3 SAVING "       HORT+DUNN" ON UNIT  61 AT TIME STEP 10, STRESS PERIOD   6
 UBDSV3 SAVING "  STORAGE CHANGE" ON UNIT  61 AT TIME STEP 10, STRESS PERIOD   6


UNSATURATED ZONE PACKAGE VOLUMETRIC BUDGET FOR  TIME STEP    10 STRESS PERIOD    6
  ------------------------------------------------------------------------------



     CUMULATIVE VOLUMES      L**3       RATES FOR THIS TIME STEP      L**3/T
     ------------------                 ------------------------

           IN:                                      IN:
           ---                                      ---
        INFILTRATION =    41928873.5420          INFILTRATION =           2.9000

          OUT:                                     OUT:
          ----                                     ----
              UZF ET =     9396286.8188                UZF ET =           1.1603
        UZF RECHARGE =     7621246.6355          UZF RECHARGE =       0.0000E+00

            IN - OUT =    24911340.0877              IN - OUT =           1.7397

          STORAGE:                                 STORAGE:
          --------                                 --------
      STORAGE CHANGE =    24911340.0317        STORAGE CHANGE =           1.7397

 PERCENT DISCREPANCY IS DIFFERENCE BETWEEN IN-OUT MINUS CHANGE IN STORAGE
 DIVIDED BY THE AVERAGE OF IN AND OUT TIMES 100

 PERCENT DISCREPANCY =           0.00     PERCENT DISCREPANCY =           0.00






1
  VOLUMETRIC BUDGET FOR ENTIRE MODEL AT END OF TIME STEP   10, STRESS PERIOD   6
  ------------------------------------------------------------------------------

     CUMULATIVE VOLUMES      L**3       RATES FOR THIS TIME STEP      L**3/T
     ------------------                 ------------------------

           IN:                                      IN:
           ---                                      ---
             STORAGE =   337987488.0000               STORAGE =          12.0005
       CONSTANT HEAD =           0.0000         CONSTANT HEAD =           0.0000
               WELLS =           0.0000                 WELLS =           0.0000
     HEAD DEP BOUNDS =    45217456.0000       HEAD DEP BOUNDS =           3.1301
      STREAM LEAKAGE =    57394676.0000        STREAM LEAKAGE =           3.9604
        UZF RECHARGE =     7621252.0000          UZF RECHARGE =           0.0000
               GW ET =           0.0000                 GW ET =           0.0000
     SURFACE LEAKAGE =           0.0000       SURFACE LEAKAGE =           0.0000

            TOTAL IN =   448220896.0000              TOTAL IN =          19.0911

          OUT:                                     OUT:
          ----                                     ----
             STORAGE =    27753604.0000               STORAGE =          19.0907
       CONSTANT HEAD =           0.0000         CONSTANT HEAD =           0.0000
               WELLS =   420480000.0000                 WELLS =           0.0000
     HEAD DEP BOUNDS =           0.0000       HEAD DEP BOUNDS =           0.0000
      STREAM LEAKAGE =           0.0000        STREAM LEAKAGE =           0.0000
        UZF RECHARGE =           0.0000          UZF RECHARGE =           0.0000
               GW ET =           0.0000                 GW ET =           0.0000
     SURFACE LEAKAGE =           0.0000       SURFACE LEAKAGE =           0.0000

           TOTAL OUT =   448233600.0000             TOTAL OUT =          19.0907

            IN - OUT =      -12704.0000              IN - OUT =       3.6430E-04

 PERCENT DISCREPANCY =          -0.00     PERCENT DISCREPANCY =           0.00






         TIME SUMMARY AT END OF TIME STEP   10 IN STRESS PERIOD    6
                    SECONDS     MINUTES      HOURS       DAYS        YEARS
                    -----------------------------------------------------------
   TIME STEP LENGTH 1.95033E+05  3250.6      54.176      2.2573     6.18023E-03
 STRESS PERIOD TIME 1.31823E+06  21971.      366.18      15.257     4.17723E-02
         TOTAL TIME 1.44582E+07 2.40970E+05  4016.2      167.34     0.45815    
1
 
 SOLVING FOR HEAD 
                                                   Max.-Head-Change                         Max.-Flux-Residual
  Residual-Control   Outer-Iter.   Inner-Iter.     Column Row Layer    Maximum-Head-Change  Column Row Layer    Maximum-Flux-Residual          L2-NORM 
          0                 1           2             4    9     1       0.9835439339E-01       4    9    1         0.2123175574E+01      0.6274496410E+01
          0                 2           2             4    9     1      -0.9746155721E-02       4    9    1        -0.2123212934E+00      0.6274468352E+00
          0                 3           2             4    9     1       0.8691860339E-03       4    9    1         0.1910888208E-01      0.5647024973E-01
          0                 4           1             4    9     1      -0.6899007039E-04       4    9    1        -0.1530622136E-02      0.4523267928E-02

    ------------------------------------------------
       NWT REQUIRED            4 OUTER ITERATIONS 
       AND A TOTAL OF          7 INNER ITERATIONS.
    ------------------------------------------------

 NO OUTPUT CONTROL FOR STRESS PERIOD    6   TIME STEP   11
 
 SOLVING FOR HEAD 
                                                   Max.-Head-Change                         Max.-Flux-Residual
  Residual-Control   Outer-Iter.   Inner-Iter.     Column Row Layer    Maximum-Head-Change  Column Row Layer    Maximum-Flux-Residual          L2-NORM 
          0                 1           2             4    9     1       0.1060768218E+00       4    9    1         0.2087027690E+01      0.6075780583E+01
          0                 2           2             4    9     1      -0.1051143246E-01       4    9    1        -0.2087076008E+00      0.6075762387E+00
          0                 3           2             4    9     1       0.9374348485E-03       4    9    1         0.1878363894E-01      0.5468188614E-01
          0                 4           1             4    9     1      -0.7440719998E-04       4    9    1        -0.1504570230E-02      0.4380020051E-02

    ------------------------------------------------
       NWT REQUIRED            4 OUTER ITERATIONS 
       AND A TOTAL OF          7 INNER ITERATIONS.
    ------------------------------------------------

 NO OUTPUT CONTROL FOR STRESS PERIOD    6   TIME STEP   12
 
 SOLVING FOR HEAD 
                                                   Max.-Head-Change                         Max.-Flux-Residual
  Residual-Control   Outer-Iter.   Inner-Iter.     Column Row Layer    Maximum-Head-Change  Column Row Layer    Maximum-Flux-Residual          L2-NORM 
          0                 1           2             4    9     1       0.1140849892E+00       4    9    1         0.2046267143E+01      0.5873725105E+01
          0                 2           2             4    9     1      -0.1130503991E-01       4    9    1        -0.2046328213E+00      0.5873719488E+00
          0                 3           2             4    9     1       0.1008210105E-02       4    9    1         0.1841689622E-01      0.5286348746E-01
          0                 4           1             4    9     1      -0.8002486287E-04       4    9    1        -0.1475194234E-02      0.4234366382E-02

    ------------------------------------------------
       NWT REQUIRED            4 OUTER ITERATIONS 
       AND A TOTAL OF          7 INNER ITERATIONS.
    ------------------------------------------------

 NO OUTPUT CONTROL FOR STRESS PERIOD    6   TIME STEP   13
 
 SOLVING FOR HEAD 
                                                   Max.-Head-Change                         Max.-Flux-Residual
  Residual-Control   Outer-Iter.   Inner-Iter.     Column Row Layer    Maximum-Head-Change  Column Row Layer    Maximum-Flux-Residual          L2-NORM 
          0                 1           2             4    8     1       0.1224563813E+00       4    9    1         0.2000679862E+01      0.5668898565E+01
          0                 2           2             4    8     1      -0.1213446865E-01       4    9    1        -0.2000755477E+00      0.5668908331E+00
          0                 3           2             4    8     1       0.1082181696E-02       4    9    1         0.1800672726E-01      0.5102017171E-01
          0                 4           1             4    8     1      -0.8589621412E-04       4    9    1        -0.1442339811E-02      0.4086716872E-02

    ------------------------------------------------
       NWT REQUIRED            4 OUTER ITERATIONS 
       AND A TOTAL OF          7 INNER ITERATIONS.
    ------------------------------------------------

 NO OUTPUT CONTROL FOR STRESS PERIOD    6   TIME STEP   14
 
 SOLVING FOR HEAD 
                                                   Max.-Head-Change                         Max.-Flux-Residual
  Residual-Control   Outer-Iter.   Inner-Iter.     Column Row Layer    Maximum-Head-Change  Column Row Layer    Maximum-Flux-Residual          L2-NORM 
          0                 1           2             4    8     1       0.1318086685E+00       4    8    1         0.1952253904E+01      0.5461853762E+01
          0                 2           2             4    8     1      -0.1306128999E-01       4    8    1        -0.1952298728E+00      0.5461881719E+00
          0                 3           2             4    8     1       0.1164837074E-02       4    8    1         0.1757064671E-01      0.4915691412E-01
          0                 4           1             4    8     1      -0.9245684051E-04       4    8    1        -0.1407409504E-02      0.3937470038E-02

    ------------------------------------------------
       NWT REQUIRED            4 OUTER ITERATIONS 
       AND A TOTAL OF          7 INNER ITERATIONS.
    ------------------------------------------------

 OUTPUT CONTROL FOR STRESS PERIOD    6   TIME STEP   15
    PRINT BUDGET
    PRINT HEAD FOR ALL LAYERS
    SAVE HEAD FOR ALL LAYERS
    SAVE BUDGET

  HEAD DEP BOUNDS   PERIOD    6   STEP  15
 BOUNDARY      1   LAYER   1   ROW    13   COL     1   RATE    0.760307    
 BOUNDARY      2   LAYER   1   ROW    14   COL     9   RATE     2.37034    



 STREAM LISTING     PERIOD      6   STEP       15

 LAYER ROW COL. STREAM  RCH.  FLOW INTO     FLOW TO   FLOW OUT OF   OVRLND.     DIRECT     STREAM       STREAM     STREAM     STREAM   STREAMBED  STREAMBED
                SEG.NO.  NO.  STRM. RCH.    AQUIFER    STRM. RCH.    RUNOFF     PRECIP       ET          HEAD       DEPTH      WIDTH   CONDCTNC.   GRADIENT

   1    1    1     1     1    2.5000E+01  2.4515E-09   2.5000E+01  0.000E+00  0.000E+00  0.000E+00  1.09423E+03  1.178E+00  1.304E+01  5.867E-10  1.393E+00
   1    2    2     1     2    2.5000E+01  3.8085E-09   2.5000E+01  0.000E+00  0.000E+00  0.000E+00  1.08924E+03  1.177E+00  1.302E+01  9.117E-10  1.392E+00
   1    3    3     1     3    2.5000E+01  3.2661E-09   2.5000E+01  0.000E+00  0.000E+00  0.000E+00  1.08360E+03  1.178E+00  1.303E+01  7.818E-10  1.393E+00
   1    3    4     1     4    2.5000E+01  3.0219E-09   2.5000E+01  0.000E+00  0.000E+00  0.000E+00  1.07859E+03  1.178E+00  1.303E+01  7.233E-10  1.393E+00
   1    4    5     2     1    1.5000E+01  3.0290E-01   1.4697E+01  0.000E+00  0.000E+00  0.000E+00  1.07282E+03  8.834E-01  1.200E+01  7.800E-02  1.294E+00
   1    5    6     2     2    1.4697E+01  2.3243E-01   1.4465E+01  0.000E+00  0.000E+00  0.000E+00  1.06738E+03  8.738E-01  1.200E+01  6.000E-02  1.291E+00
   1    6    6     2     3    1.4465E+01  2.3193E-01   1.4233E+01  0.000E+00  0.000E+00  0.000E+00  1.06266E+03  8.654E-01  1.200E+01  6.000E-02  1.288E+00
   1    7    6     2     4    1.4233E+01  2.3142E-01   1.4001E+01  0.000E+00  0.000E+00  0.000E+00  1.05793E+03  8.570E-01  1.200E+01  6.000E-02  1.286E+00
   1    8    6     2     5    1.4001E+01  2.3091E-01   1.3770E+01  0.000E+00  0.000E+00  0.000E+00  1.05321E+03  8.486E-01  1.200E+01  6.000E-02  1.283E+00
   1    3    5     3     1    1.0000E+01  2.8252E-01   9.7175E+00  0.000E+00  0.000E+00  0.000E+00  1.07555E+03  1.909E+00  9.636E+00  7.227E-02  1.955E+00
   1    3    6     3     2    9.7175E+00  2.4905E-01   9.4684E+00  0.000E+00  0.000E+00  0.000E+00  1.07264E+03  1.727E+00  8.909E+00  6.682E-02  1.864E+00
   1    3    7     3     3    9.4684E+00  1.9718E-01   9.2712E+00  0.000E+00  0.000E+00  0.000E+00  1.06987E+03  1.555E+00  8.218E+00  5.547E-02  1.777E+00
   1    4    8     3     4    9.2712E+00  2.2567E-01   9.0456E+00  0.000E+00  0.000E+00  0.000E+00  1.06682E+03  1.364E+00  7.455E+00  6.709E-02  1.682E+00
   1    5    8     3     5    9.0456E+00  1.5790E-01   8.8877E+00  0.000E+00  0.000E+00  0.000E+00  1.06362E+03  1.164E+00  6.655E+00  4.991E-02  1.582E+00
   1    6    8     3     6    8.8877E+00  5.5980E-02   8.8317E+00  0.000E+00  0.000E+00  0.000E+00  1.06158E+03  1.036E+00  6.145E+00  1.844E-02  1.518E+00
   1    5   10     4     1    1.0000E+01  9.0919E-02   9.9091E+00  0.000E+00  0.000E+00  0.000E+00  1.07836E+03  6.368E-01  1.000E+01  2.500E-02  1.212E+00
   1    5    9     4     2    9.9091E+00  1.8158E-01   9.7275E+00  0.000E+00  0.000E+00  0.000E+00  1.07154E+03  6.315E-01  1.000E+01  5.000E-02  1.211E+00
   1    6    8     4     3    9.7275E+00  1.2689E-01   9.6006E+00  0.000E+00  0.000E+00  0.000E+00  1.06381E+03  6.256E-01  1.000E+01  3.500E-02  1.209E+00
   1    6    8     5     1    1.8432E+01  3.3262E-09   1.8432E+01  0.000E+00  0.000E+00  0.000E+00  1.05883E+03  8.293E-01  2.172E+01  8.686E-10  1.276E+00
   1    7    7     5     2    1.8432E+01  4.1514E-09   1.8432E+01  0.000E+00  0.000E+00  0.000E+00  1.05433E+03  8.286E-01  2.169E+01  1.084E-09  1.276E+00
   1    8    7     5     3    1.8432E+01  2.9126E-09   1.8432E+01  0.000E+00  0.000E+00  0.000E+00  1.05008E+03  8.296E-01  2.173E+01  7.606E-10  1.277E+00
   1    8    6     5     4    1.8432E+01  2.0836E-09   1.8432E+01  0.000E+00  0.000E+00  0.000E+00  1.04708E+03  8.303E-01  2.176E+01  5.440E-10  1.277E+00
   1    9    6     6     1    3.2203E+01  2.6507E-01   3.1938E+01  0.000E+00  0.000E+00  0.000E+00  1.04415E+03  1.418E+00  1.200E+01  6.000E-02  1.473E+00
   1   10    7     6     2    3.1938E+01  2.6465E-01   3.1673E+01  0.000E+00  0.000E+00  0.000E+00  1.03959E+03  1.411E+00  1.200E+01  6.000E-02  1.470E+00
   1   11    7     6     3    3.1673E+01  2.6423E-01   3.1409E+01  0.000E+00  0.000E+00  0.000E+00  1.03504E+03  1.404E+00  1.200E+01  6.000E-02  1.468E+00
   1   12    7     6     4    3.1409E+01  2.6380E-01   3.1145E+01  0.000E+00  0.000E+00  0.000E+00  1.03049E+03  1.397E+00  1.200E+01  6.000E-02  1.466E+00
   1   13    7     6     5    3.1145E+01  1.0540E-01   3.1040E+01  0.000E+00  0.000E+00  0.000E+00  1.02730E+03  1.392E+00  1.200E+01  2.400E-02  1.464E+00
   1   14    9     7     1    1.5000E+02  2.9539E-14   1.5000E+02  0.000E+00  0.000E+00  0.000E+00  1.03986E+03  2.283E+00  5.528E+01  5.591E-15  1.761E+00
   1   13    8     7     2    1.5000E+02  3.2486E-13   1.5000E+02  0.000E+00  0.000E+00  0.000E+00  1.03478E+03  2.283E+00  5.527E+01  6.150E-14  1.761E+00
   1   13    7     7     3    1.5000E+02  2.9539E-14   1.5000E+02  0.000E+00  0.000E+00  0.000E+00  1.02970E+03  2.283E+00  5.528E+01  5.591E-15  1.761E+00
   1   13    6     8     1    1.8104E+02  0.0000E+00   1.8104E+02  0.000E+00  0.000E+00  0.000E+00  1.02490E+03  3.023E+00  4.383E+01  0.000E+00  2.008E+00
   1   13    5     8     2    1.8104E+02  2.6787E-12   1.8104E+02  0.000E+00  0.000E+00  0.000E+00  1.01864E+03  3.014E+00  4.371E+01  4.454E-13  2.005E+00
   1   13    4     8     3    1.8104E+02  2.6787E-12   1.8104E+02  0.000E+00  0.000E+00  0.000E+00  1.01239E+03  3.014E+00  4.371E+01  4.454E-13  2.005E+00
   1   13    3     8     4    1.8104E+02  2.6787E-12   1.8104E+02  0.000E+00  0.000E+00  0.000E+00  1.00614E+03  3.014E+00  4.371E+01  4.454E-13  2.005E+00
   1   13    2     8     5    1.8104E+02  2.6787E-12   1.8104E+02  0.000E+00  0.000E+00  0.000E+00  9.99889E+02  3.014E+00  4.371E+01  4.454E-13  2.005E+00
   1   13    1     8     6    1.8104E+02  1.6099E-08   1.8104E+02  0.000E+00  0.000E+00  0.000E+00  9.94893E+02  3.018E+00  4.376E+01  2.675E-09  2.006E+00



 UBDSV3 SAVING "     NETRECHARGE" ON UNIT 100 AT TIME STEP 15, STRESS PERIOD   6
 UBDSV3 SAVING "    NETDISCHARGE" ON UNIT 101 AT TIME STEP 15, STRESS PERIOD   6
 UBDSV3 SAVING "           GW ET" ON UNIT  61 AT TIME STEP 15, STRESS PERIOD   6
 UBDSV3 SAVING "    UZF RECHARGE" ON UNIT  61 AT TIME STEP 15, STRESS PERIOD   6
 UBDSV3 SAVING " SURFACE LEAKAGE" ON UNIT  61 AT TIME STEP 15, STRESS PERIOD   6
 UBDSV3 SAVING "       HORT+DUNN" ON UNIT  61 AT TIME STEP 15, STRESS PERIOD   6
 UBDSV3 SAVING "  STORAGE CHANGE" ON UNIT  61 AT TIME STEP 15, STRESS PERIOD   6


UNSATURATED ZONE PACKAGE VOLUMETRIC BUDGET FOR  TIME STEP    15 STRESS PERIOD    6
  ------------------------------------------------------------------------------



     CUMULATIVE VOLUMES      L**3       RATES FOR THIS TIME STEP      L**3/T
     ------------------                 ------------------------

           IN:                                      IN:
           ---                                      ---
        INFILTRATION =    45727195.8936          INFILTRATION =           2.9000

          OUT:                                     OUT:
          ----                                     ----
              UZF ET =    10927708.2402                UZF ET =           1.1749
        UZF RECHARGE =     7621246.6355          UZF RECHARGE =       0.0000E+00

            IN - OUT =    27178241.0178              IN - OUT =           1.7251

          STORAGE:                                 STORAGE:
          --------                                 --------
      STORAGE CHANGE =    27178240.9944        STORAGE CHANGE =           1.7251

 PERCENT DISCREPANCY IS DIFFERENCE BETWEEN IN-OUT MINUS CHANGE IN STORAGE
 DIVIDED BY THE AVERAGE OF IN AND OUT TIMES 100

 PERCENT DISCREPANCY =           0.00     PERCENT DISCREPANCY =           0.00






1
              HEAD IN LAYER   1 AT END OF TIME STEP  15 IN STRESS PERIOD    6
  ---------------------------------------------------------------------------

           1       2       3       4       5       6       7       8       9      10
 ...................................................................................
   1  1003.35 1000.48 6999.00 6999.00 6999.00 6999.00 6999.00 6999.00 6999.00 6999.00
   2  1000.96  958.84  958.27 6999.00 6999.00  964.44  964.91  965.30 6999.00 6999.00
   3  6999.00  957.99  957.40  957.16  958.17  959.62  960.83  961.63 6999.00 6999.00
   4   959.11  957.63  956.79  956.28  956.61  957.11  958.39  960.76  962.04 6999.00
   5   958.75  956.84  955.57  954.59  955.09  956.21  957.18  958.28  959.76  964.27
   6   958.38  956.19  954.04  952.49  953.22  955.15  956.59  957.68  959.07  972.23
   7   958.15  955.82  953.21  951.23  952.18  954.47  956.17  957.21  960.81 6999.00
   8  6999.00  955.90  953.22  950.96  952.03  954.35  956.09  957.62  962.37 6999.00
   9  6999.00  956.53  953.95  951.82  952.80  954.95  956.71  958.57  963.49 6999.00
  10  6999.00  957.76  955.51  953.73  954.43  956.20  957.84  959.83  963.78  967.36
  11  6999.00  959.62  957.99  956.53  956.92  958.11  959.60  961.75  965.92 6999.00
  12   965.97  961.65  959.77  958.79  958.94  959.89  961.37  964.72  970.88 6999.00
  13   967.99  962.88  960.83  960.04  960.16  961.22  963.51  967.92  976.61 6999.00
  14  6999.00  964.00  961.53  961.23  961.61  963.06  966.39  973.57  982.62 6999.00
  15  6999.00 6999.00  965.52  965.52  965.80  966.33 6999.00 6999.00 6999.00 6999.00

 HEAD WILL BE SAVED ON UNIT   58 AT END OF TIME STEP   15, STRESS PERIOD    6
1
  VOLUMETRIC BUDGET FOR ENTIRE MODEL AT END OF TIME STEP   15, STRESS PERIOD   6
  ------------------------------------------------------------------------------

     CUMULATIVE VOLUMES      L**3       RATES FOR THIS TIME STEP      L**3/T
     ------------------                 ------------------------

           IN:                                      IN:
           ---                                      ---
             STORAGE =   351327072.0000               STORAGE =           9.3370
       CONSTANT HEAD =           0.0000         CONSTANT HEAD =           0.0000
               WELLS =           0.0000                 WELLS =           0.0000
     HEAD DEP BOUNDS =    49317596.0000       HEAD DEP BOUNDS =           3.1306
      STREAM LEAKAGE =    62581916.0000        STREAM LEAKAGE =           3.9604
        UZF RECHARGE =     7621252.0000          UZF RECHARGE =           0.0000
               GW ET =           0.0000                 GW ET =           0.0000
     SURFACE LEAKAGE =           0.0000       SURFACE LEAKAGE =           0.0000

            TOTAL IN =   470847840.0000              TOTAL IN =          16.4281

          OUT:                                     OUT:
          ----                                     ----
             STORAGE =    50380056.0000               STORAGE =          16.4277
       CONSTANT HEAD =           0.0000         CONSTANT HEAD =           0.0000
               WELLS =   420480000.0000                 WELLS =           0.0000
     HEAD DEP BOUNDS =           0.0000       HEAD DEP BOUNDS =           0.0000
      STREAM LEAKAGE =           0.0000        STREAM LEAKAGE =           0.0000
        UZF RECHARGE =           0.0000          UZF RECHARGE =           0.0000
               GW ET =           0.0000                 GW ET =           0.0000
     SURFACE LEAKAGE =           0.0000       SURFACE LEAKAGE =           0.0000

           TOTAL OUT =   470860064.0000             TOTAL OUT =          16.4277

            IN - OUT =      -12224.0000              IN - OUT =       3.6430E-04

 PERCENT DISCREPANCY =          -0.00     PERCENT DISCREPANCY =           0.00






         TIME SUMMARY AT END OF TIME STEP   15 IN STRESS PERIOD    6
                    SECONDS     MINUTES      HOURS       DAYS        YEARS
                    -----------------------------------------------------------
   TIME STEP LENGTH 3.14103E+05  5235.0      87.251      3.6354     9.95332E-03
 STRESS PERIOD TIME 2.62800E+06  43800.      730.00      30.417     8.32763E-02
         TOTAL TIME 1.57680E+07 2.62800E+05  4380.0      182.50     0.49966    
1
1
                            STRESS PERIOD NO.    7, LENGTH =   2628000.    
                            -----------------------------------------------

                              NUMBER OF TIME STEPS =    15

                               MULTIPLIER FOR DELT =     1.100

                            INITIAL TIME STEP SIZE =   82713.07    

 WELL NO.  LAYER   ROW   COL   STRESS RATE         
 --------------------------------------------------
      1      1      6      4      -2.000    
      2      1      6      5      -2.000    
      3      1      7      4      -2.000    
      4      1      7      5      -2.000    
      5      1      8      4      -2.000    
      6      1      8      5      -2.000    
      7      1      9      4      -2.000    
      8      1      9      5      -2.000    
      9      1     10      4      -2.000    
     10      1     10      5      -2.000    

     10 WELLS

 REUSING NON-PARAMETER GHB CELLS FROM LAST STRESS PERIOD

      2 GHB CELLS

 REUSING STREAM SEGMENT DATA FROM LAST STRESS PERIOD



            AREAL INFILTRATION RATE
 READING ON UNIT   19 WITH FORMAT: (10F4.0)            

            1           2           3           4           5           6           7           8           9          10
 ........................................................................................................................
   1   3.0000E-09  6.0000E-09   0.000       0.000       0.000       0.000       0.000       0.000       0.000       0.000    
   2   6.0000E-09  3.0000E-09  6.0000E-09   0.000       0.000      2.4000E-08  2.4000E-08  1.5000E-08   0.000       0.000    
   3    0.000      1.5000E-08  3.0000E-09  3.0000E-09  2.4000E-08  2.4000E-08  1.5000E-08  1.5000E-08   0.000       0.000    
   4   2.4000E-08  1.5000E-08  3.0000E-09  3.0000E-09  3.0000E-09  3.0000E-09  3.0000E-09  3.0000E-09  6.0000E-09   0.000    
   5   2.4000E-08  1.5000E-08  3.0000E-09  3.0000E-09  3.0000E-09  3.0000E-09  3.0000E-09  3.0000E-09  3.0000E-09  3.0000E-09
   6   2.4000E-08  1.5000E-08  1.5000E-08  6.0000E-09  6.0000E-09  3.0000E-09  3.0000E-09  3.0000E-09  3.0000E-09  1.5000E-08
   7   2.4000E-08  1.5000E-08  1.5000E-08  6.0000E-09  6.0000E-09  3.0000E-09  3.0000E-09  6.0000E-09  6.0000E-09   0.000    
   8    0.000      1.5000E-08  1.5000E-08  6.0000E-09  6.0000E-09  3.0000E-09  3.0000E-09  6.0000E-09  1.5000E-08   0.000    
   9    0.000      1.5000E-08  1.5000E-08  6.0000E-09  6.0000E-09  3.0000E-09  3.0000E-09  6.0000E-09  1.5000E-08   0.000    
  10    0.000      1.5000E-08  1.5000E-08  6.0000E-09  6.0000E-09  3.0000E-09  3.0000E-09  6.0000E-09  1.5000E-08  2.4000E-08
  11    0.000      3.0000E-09  3.0000E-09  3.0000E-09  3.0000E-09  3.0000E-09  3.0000E-09  6.0000E-09  1.5000E-08   0.000    
  12   3.0000E-09  3.0000E-09  3.0000E-09  3.0000E-09  3.0000E-09  3.0000E-09  3.0000E-09  3.0000E-09  6.0000E-09   0.000    
  13   3.0000E-09  3.0000E-09  6.0000E-09  6.0000E-09  6.0000E-09  6.0000E-09  6.0000E-09  3.0000E-09  3.0000E-09   0.000    
  14    0.000      6.0000E-09  1.5000E-08  1.5000E-08  1.5000E-08  1.5000E-08  1.5000E-08  6.0000E-09  3.0000E-09   0.000    
  15    0.000       0.000      2.4000E-08  2.4000E-08  2.4000E-08  2.4000E-08   0.000       0.000       0.000       0.000    

USING ET RATE FROM PREVIOUS STRESS PERIOD. CURRENT PERIOD IS:       7

 USING ET EXTINCTION DEPTH FROM PREVIOUS STRESS PERIOD. CURRENT PERIOD IS:       7

 USING EXTINCTION WATER CONTENT FROM PREVIOUS STRESS PERIOD. CURRENT PERIOD IS:       7
 
 SOLVING FOR HEAD 
                                                   Max.-Head-Change                         Max.-Flux-Residual
  Residual-Control   Outer-Iter.   Inner-Iter.     Column Row Layer    Maximum-Head-Change  Column Row Layer    Maximum-Flux-Residual          L2-NORM 
          0                 1           2             5   10     1      -0.1332810660E-01       5   10    1        -0.7611197490E+00      0.1987127187E+01
          0                 2           2             5   10     1       0.1320690306E-02       5   10    1         0.7611169303E-01      0.1987123717E+00
          0                 3           2             5   10     1      -0.1177826086E-03       5   10    1        -0.6850055991E-02      0.1788411907E-01
          0                 4           1             5   10     1       0.9348780026E-05       5   10    1         0.5486896102E-03      0.1432518290E-02

    ------------------------------------------------
       NWT REQUIRED            4 OUTER ITERATIONS 
       AND A TOTAL OF          7 INNER ITERATIONS.
    ------------------------------------------------

 NO OUTPUT CONTROL FOR STRESS PERIOD    7   TIME STEP    1
 
 SOLVING FOR HEAD 
                                                   Max.-Head-Change                         Max.-Flux-Residual
  Residual-Control   Outer-Iter.   Inner-Iter.     Column Row Layer    Maximum-Head-Change  Column Row Layer    Maximum-Flux-Residual          L2-NORM 
          0                 1           2             5   10     1      -0.1410170667E-01       5   10    1        -0.7339987976E+00      0.1955432998E+01
          0                 2           2             5   10     1       0.1397346145E-02       5   10    1         0.7339956303E-01      0.1955429072E+00
          0                 3           2             5   10     1      -0.1246189830E-03       5   10    1        -0.6605964596E-02      0.1759886768E-01
          0                 4           1             5   10     1       0.9891404701E-05       5   10    1         0.5291378825E-03      0.1409669634E-02

    ------------------------------------------------
       NWT REQUIRED            4 OUTER ITERATIONS 
       AND A TOTAL OF          7 INNER ITERATIONS.
    ------------------------------------------------

 NO OUTPUT CONTROL FOR STRESS PERIOD    7   TIME STEP    2
 
 SOLVING FOR HEAD 
                                                   Max.-Head-Change                         Max.-Flux-Residual
  Residual-Control   Outer-Iter.   Inner-Iter.     Column Row Layer    Maximum-Head-Change  Column Row Layer    Maximum-Flux-Residual          L2-NORM 
          0                 1           2             5   10     1      -0.1488051134E-01       5   10    1        -0.7060055813E+00      0.1918711218E+01
          0                 2           2             5   10     1       0.1474517528E-02       5   10    1         0.7060020338E-01      0.1918706812E+00
          0                 3           2             5   10     1      -0.1315013367E-03       5   10    1        -0.6354022571E-02      0.1726836778E-01
          0                 4           1             5   10     1       0.1043767889E-04       5   10    1         0.5089573078E-03      0.1383196569E-02

    ------------------------------------------------
       NWT REQUIRED            4 OUTER ITERATIONS 
       AND A TOTAL OF          7 INNER ITERATIONS.
    ------------------------------------------------

 NO OUTPUT CONTROL FOR STRESS PERIOD    7   TIME STEP    3
 
 SOLVING FOR HEAD 
                                                   Max.-Head-Change                         Max.-Flux-Residual
  Residual-Control   Outer-Iter.   Inner-Iter.     Column Row Layer    Maximum-Head-Change  Column Row Layer    Maximum-Flux-Residual          L2-NORM 
          0                 1           2             5   10     1      -0.1565999449E-01       5   10    1        -0.6772721344E+00      0.1881833425E+01
          0                 2           2             5   10     1       0.1551755928E-02       5   10    1         0.6772681759E-01      0.1881842206E+00
          0                 3           2             5   10     1      -0.1383896697E-03       5   10    1        -0.6095418231E-02      0.1693658677E-01
          0                 4           1             5   10     1       0.1098442763E-04       5   10    1         0.4882430981E-03      0.1356620895E-02

    ------------------------------------------------
       NWT REQUIRED            4 OUTER ITERATIONS 
       AND A TOTAL OF          7 INNER ITERATIONS.
    ------------------------------------------------

 NO OUTPUT CONTROL FOR STRESS PERIOD    7   TIME STEP    4
 
 SOLVING FOR HEAD 
                                                   Max.-Head-Change                         Max.-Flux-Residual
  Residual-Control   Outer-Iter.   Inner-Iter.     Column Row Layer    Maximum-Head-Change  Column Row Layer    Maximum-Flux-Residual          L2-NORM 
          0                 1           2             5   10     1      -0.1643577575E-01       5   10    1        -0.6479506635E+00      0.1845120373E+01
          0                 2           2             5   10     1       0.1628627263E-02       5   10    1         0.6479462659E-01      0.1845114927E+00
          0                 3           2             5   10     1      -0.1452452686E-03       5   10    1        -0.5831521423E-02      0.1660604174E-01
          0                 4           1             5   10     1       0.1152857828E-04       5   10    1         0.4671049519E-03      0.1330144238E-02

    ------------------------------------------------
       NWT REQUIRED            4 OUTER ITERATIONS 
       AND A TOTAL OF          7 INNER ITERATIONS.
    ------------------------------------------------

 OUTPUT CONTROL FOR STRESS PERIOD    7   TIME STEP    5
    PRINT BUDGET
    SAVE BUDGET

            WELLS   PERIOD    7   STEP   5
 WELL      1   LAYER   1   ROW     6   COL     4   RATE    -2.00000    
 WELL      2   LAYER   1   ROW     6   COL     5   RATE    -2.00000    
 WELL      3   LAYER   1   ROW     7   COL     4   RATE    -2.00000    
 WELL      4   LAYER   1   ROW     7   COL     5   RATE    -2.00000    
 WELL      5   LAYER   1   ROW     8   COL     4   RATE    -2.00000    
 WELL      6   LAYER   1   ROW     8   COL     5   RATE    -2.00000    
 WELL      7   LAYER   1   ROW     9   COL     4   RATE    -2.00000    
 WELL      8   LAYER   1   ROW     9   COL     5   RATE    -2.00000    
 WELL      9   LAYER   1   ROW    10   COL     4   RATE    -2.00000    
 WELL     10   LAYER   1   ROW    10   COL     5   RATE    -2.00000    

  HEAD DEP BOUNDS   PERIOD    7   STEP   5
 BOUNDARY      1   LAYER   1   ROW    13   COL     1   RATE    0.760409    
 BOUNDARY      2   LAYER   1   ROW    14   COL     9   RATE     2.37044    



 STREAM LISTING     PERIOD      7   STEP        5

 LAYER ROW COL. STREAM  RCH.  FLOW INTO     FLOW TO   FLOW OUT OF   OVRLND.     DIRECT     STREAM       STREAM     STREAM     STREAM   STREAMBED  STREAMBED
                SEG.NO.  NO.  STRM. RCH.    AQUIFER    STRM. RCH.    RUNOFF     PRECIP       ET          HEAD       DEPTH      WIDTH   CONDCTNC.   GRADIENT

   1    1    1     1     1    2.5000E+01  2.4515E-09   2.5000E+01  0.000E+00  0.000E+00  0.000E+00  1.09423E+03  1.178E+00  1.304E+01  5.867E-10  1.393E+00
   1    2    2     1     2    2.5000E+01  3.8085E-09   2.5000E+01  0.000E+00  0.000E+00  0.000E+00  1.08924E+03  1.177E+00  1.302E+01  9.117E-10  1.392E+00
   1    3    3     1     3    2.5000E+01  3.2661E-09   2.5000E+01  0.000E+00  0.000E+00  0.000E+00  1.08360E+03  1.178E+00  1.303E+01  7.818E-10  1.393E+00
   1    3    4     1     4    2.5000E+01  3.0219E-09   2.5000E+01  0.000E+00  0.000E+00  0.000E+00  1.07859E+03  1.178E+00  1.303E+01  7.233E-10  1.393E+00
   1    4    5     2     1    1.5000E+01  3.0290E-01   1.4697E+01  0.000E+00  0.000E+00  0.000E+00  1.07282E+03  8.834E-01  1.200E+01  7.800E-02  1.294E+00
   1    5    6     2     2    1.4697E+01  2.3243E-01   1.4465E+01  0.000E+00  0.000E+00  0.000E+00  1.06738E+03  8.738E-01  1.200E+01  6.000E-02  1.291E+00
   1    6    6     2     3    1.4465E+01  2.3193E-01   1.4233E+01  0.000E+00  0.000E+00  0.000E+00  1.06266E+03  8.654E-01  1.200E+01  6.000E-02  1.288E+00
   1    7    6     2     4    1.4233E+01  2.3142E-01   1.4001E+01  0.000E+00  0.000E+00  0.000E+00  1.05793E+03  8.570E-01  1.200E+01  6.000E-02  1.286E+00
   1    8    6     2     5    1.4001E+01  2.3091E-01   1.3770E+01  0.000E+00  0.000E+00  0.000E+00  1.05321E+03  8.486E-01  1.200E+01  6.000E-02  1.283E+00
   1    3    5     3     1    1.0000E+01  2.8252E-01   9.7175E+00  0.000E+00  0.000E+00  0.000E+00  1.07555E+03  1.909E+00  9.636E+00  7.227E-02  1.955E+00
   1    3    6     3     2    9.7175E+00  2.4905E-01   9.4684E+00  0.000E+00  0.000E+00  0.000E+00  1.07264E+03  1.727E+00  8.909E+00  6.682E-02  1.864E+00
   1    3    7     3     3    9.4684E+00  1.9718E-01   9.2712E+00  0.000E+00  0.000E+00  0.000E+00  1.06987E+03  1.555E+00  8.218E+00  5.547E-02  1.777E+00
   1    4    8     3     4    9.2712E+00  2.2567E-01   9.0456E+00  0.000E+00  0.000E+00  0.000E+00  1.06682E+03  1.364E+00  7.455E+00  6.709E-02  1.682E+00
   1    5    8     3     5    9.0456E+00  1.5790E-01   8.8877E+00  0.000E+00  0.000E+00  0.000E+00  1.06362E+03  1.164E+00  6.655E+00  4.991E-02  1.582E+00
   1    6    8     3     6    8.8877E+00  5.5980E-02   8.8317E+00  0.000E+00  0.000E+00  0.000E+00  1.06158E+03  1.036E+00  6.145E+00  1.844E-02  1.518E+00
   1    5   10     4     1    1.0000E+01  9.0919E-02   9.9091E+00  0.000E+00  0.000E+00  0.000E+00  1.07836E+03  6.368E-01  1.000E+01  2.500E-02  1.212E+00
   1    5    9     4     2    9.9091E+00  1.8158E-01   9.7275E+00  0.000E+00  0.000E+00  0.000E+00  1.07154E+03  6.315E-01  1.000E+01  5.000E-02  1.211E+00
   1    6    8     4     3    9.7275E+00  1.2689E-01   9.6006E+00  0.000E+00  0.000E+00  0.000E+00  1.06381E+03  6.256E-01  1.000E+01  3.500E-02  1.209E+00
   1    6    8     5     1    1.8432E+01  3.3262E-09   1.8432E+01  0.000E+00  0.000E+00  0.000E+00  1.05883E+03  8.293E-01  2.172E+01  8.686E-10  1.276E+00
   1    7    7     5     2    1.8432E+01  4.1514E-09   1.8432E+01  0.000E+00  0.000E+00  0.000E+00  1.05433E+03  8.286E-01  2.169E+01  1.084E-09  1.276E+00
   1    8    7     5     3    1.8432E+01  2.9126E-09   1.8432E+01  0.000E+00  0.000E+00  0.000E+00  1.05008E+03  8.296E-01  2.173E+01  7.606E-10  1.277E+00
   1    8    6     5     4    1.8432E+01  2.0836E-09   1.8432E+01  0.000E+00  0.000E+00  0.000E+00  1.04708E+03  8.303E-01  2.176E+01  5.440E-10  1.277E+00
   1    9    6     6     1    3.2203E+01  2.6507E-01   3.1938E+01  0.000E+00  0.000E+00  0.000E+00  1.04415E+03  1.418E+00  1.200E+01  6.000E-02  1.473E+00
   1   10    7     6     2    3.1938E+01  2.6465E-01   3.1673E+01  0.000E+00  0.000E+00  0.000E+00  1.03959E+03  1.411E+00  1.200E+01  6.000E-02  1.470E+00
   1   11    7     6     3    3.1673E+01  2.6423E-01   3.1409E+01  0.000E+00  0.000E+00  0.000E+00  1.03504E+03  1.404E+00  1.200E+01  6.000E-02  1.468E+00
   1   12    7     6     4    3.1409E+01  2.6380E-01   3.1145E+01  0.000E+00  0.000E+00  0.000E+00  1.03049E+03  1.397E+00  1.200E+01  6.000E-02  1.466E+00
   1   13    7     6     5    3.1145E+01  1.0540E-01   3.1040E+01  0.000E+00  0.000E+00  0.000E+00  1.02730E+03  1.392E+00  1.200E+01  2.400E-02  1.464E+00
   1   14    9     7     1    1.5000E+02  2.9539E-14   1.5000E+02  0.000E+00  0.000E+00  0.000E+00  1.03986E+03  2.283E+00  5.528E+01  5.591E-15  1.761E+00
   1   13    8     7     2    1.5000E+02  3.2486E-13   1.5000E+02  0.000E+00  0.000E+00  0.000E+00  1.03478E+03  2.283E+00  5.527E+01  6.150E-14  1.761E+00
   1   13    7     7     3    1.5000E+02  2.9539E-14   1.5000E+02  0.000E+00  0.000E+00  0.000E+00  1.02970E+03  2.283E+00  5.528E+01  5.591E-15  1.761E+00
   1   13    6     8     1    1.8104E+02  0.0000E+00   1.8104E+02  0.000E+00  0.000E+00  0.000E+00  1.02490E+03  3.023E+00  4.383E+01  0.000E+00  2.008E+00
   1   13    5     8     2    1.8104E+02  2.6787E-12   1.8104E+02  0.000E+00  0.000E+00  0.000E+00  1.01864E+03  3.014E+00  4.371E+01  4.454E-13  2.005E+00
   1   13    4     8     3    1.8104E+02  2.6787E-12   1.8104E+02  0.000E+00  0.000E+00  0.000E+00  1.01239E+03  3.014E+00  4.371E+01  4.454E-13  2.005E+00
   1   13    3     8     4    1.8104E+02  2.6787E-12   1.8104E+02  0.000E+00  0.000E+00  0.000E+00  1.00614E+03  3.014E+00  4.371E+01  4.454E-13  2.005E+00
   1   13    2     8     5    1.8104E+02  2.6787E-12   1.8104E+02  0.000E+00  0.000E+00  0.000E+00  9.99889E+02  3.014E+00  4.371E+01  4.454E-13  2.005E+00
   1   13    1     8     6    1.8104E+02  1.6099E-08   1.8104E+02  0.000E+00  0.000E+00  0.000E+00  9.94893E+02  3.018E+00  4.376E+01  2.675E-09  2.006E+00



 UBDSV3 SAVING "     NETRECHARGE" ON UNIT 100 AT TIME STEP  5, STRESS PERIOD   7
 UBDSV3 SAVING "    NETDISCHARGE" ON UNIT 101 AT TIME STEP  5, STRESS PERIOD   7
 UBDSV3 SAVING "           GW ET" ON UNIT  61 AT TIME STEP  5, STRESS PERIOD   7
 UBDSV3 SAVING "    UZF RECHARGE" ON UNIT  61 AT TIME STEP  5, STRESS PERIOD   7
 UBDSV3 SAVING " SURFACE LEAKAGE" ON UNIT  61 AT TIME STEP  5, STRESS PERIOD   7
 UBDSV3 SAVING "       HORT+DUNN" ON UNIT  61 AT TIME STEP  5, STRESS PERIOD   7
 UBDSV3 SAVING "  STORAGE CHANGE" ON UNIT  61 AT TIME STEP  5, STRESS PERIOD   7


UNSATURATED ZONE PACKAGE VOLUMETRIC BUDGET FOR  TIME STEP     5 STRESS PERIOD    7
  ------------------------------------------------------------------------------



     CUMULATIVE VOLUMES      L**3       RATES FOR THIS TIME STEP      L**3/T
     ------------------                 ------------------------

           IN:                                      IN:
           ---                                      ---
        INFILTRATION =    47191613.4531          INFILTRATION =           2.9000

          OUT:                                     OUT:
          ----                                     ----
              UZF ET =    11519439.6711                UZF ET =           1.1723
        UZF RECHARGE =     7621246.6355          UZF RECHARGE =       0.0000E+00

            IN - OUT =    28050927.1465              IN - OUT =           1.7277

          STORAGE:                                 STORAGE:
          --------                                 --------
      STORAGE CHANGE =    28050927.1032        STORAGE CHANGE =           1.7277

 PERCENT DISCREPANCY IS DIFFERENCE BETWEEN IN-OUT MINUS CHANGE IN STORAGE
 DIVIDED BY THE AVERAGE OF IN AND OUT TIMES 100

 PERCENT DISCREPANCY =           0.00     PERCENT DISCREPANCY =           0.00






1
  VOLUMETRIC BUDGET FOR ENTIRE MODEL AT END OF TIME STEP    5, STRESS PERIOD   7
  ------------------------------------------------------------------------------

     CUMULATIVE VOLUMES      L**3       RATES FOR THIS TIME STEP      L**3/T
     ------------------                 ------------------------

           IN:                                      IN:
           ---                                      ---
             STORAGE =   357951840.0000               STORAGE =          12.9993
       CONSTANT HEAD =           0.0000         CONSTANT HEAD =           0.0000
               WELLS =           0.0000                 WELLS =           0.0000
     HEAD DEP BOUNDS =    50898548.0000       HEAD DEP BOUNDS =           3.1308
      STREAM LEAKAGE =    64587192.0000        STREAM LEAKAGE =           3.9604
        UZF RECHARGE =     7621252.0000          UZF RECHARGE =           0.0000
               GW ET =           0.0000                 GW ET =           0.0000
     SURFACE LEAKAGE =           0.0000       SURFACE LEAKAGE =           0.0000

            TOTAL IN =   481058848.0000              TOTAL IN =          20.0906

          OUT:                                     OUT:
          ----                                     ----
             STORAGE =    50491912.0000               STORAGE =       9.1210E-02
       CONSTANT HEAD =           0.0000         CONSTANT HEAD =           0.0000
               WELLS =   430579456.0000                 WELLS =          20.0000
     HEAD DEP BOUNDS =           0.0000       HEAD DEP BOUNDS =           0.0000
      STREAM LEAKAGE =           0.0000        STREAM LEAKAGE =           0.0000
        UZF RECHARGE =           0.0000          UZF RECHARGE =           0.0000
               GW ET =           0.0000                 GW ET =           0.0000
     SURFACE LEAKAGE =           0.0000       SURFACE LEAKAGE =           0.0000

           TOTAL OUT =   481071360.0000             TOTAL OUT =          20.0912

            IN - OUT =      -12512.0000              IN - OUT =      -6.5041E-04

 PERCENT DISCREPANCY =          -0.00     PERCENT DISCREPANCY =          -0.00






         TIME SUMMARY AT END OF TIME STEP    5 IN STRESS PERIOD    7
                    SECONDS     MINUTES      HOURS       DAYS        YEARS
                    -----------------------------------------------------------
   TIME STEP LENGTH 1.21100E+05  2018.3      33.639      1.4016     3.83743E-03
 STRESS PERIOD TIME 5.04972E+05  8416.2      140.27      5.8446     1.60016E-02
         TOTAL TIME 1.62730E+07 2.71216E+05  4520.3      188.34     0.51566    
1
 
 SOLVING FOR HEAD 
                                                   Max.-Head-Change                         Max.-Flux-Residual
  Residual-Control   Outer-Iter.   Inner-Iter.     Column Row Layer    Maximum-Head-Change  Column Row Layer    Maximum-Flux-Residual          L2-NORM 
          0                 1           2             5   10     1      -0.1720437676E-01       5   10    1        -0.6182292706E+00      0.1808943846E+01
          0                 2           2             5   10     1       0.1704786828E-02       5   10    1         0.6182244095E-01      0.1808937860E+00
          0                 3           2             5   10     1      -0.1520373936E-03       5   10    1        -0.5564025149E-02      0.1628044865E-01
          0                 4           1             5   10     1       0.1206769081E-04       5   10    1         0.4456785045E-03      0.1304064227E-02

    ------------------------------------------------
       NWT REQUIRED            4 OUTER ITERATIONS 
       AND A TOTAL OF          7 INNER ITERATIONS.
    ------------------------------------------------

 NO OUTPUT CONTROL FOR STRESS PERIOD    7   TIME STEP    6
 
 SOLVING FOR HEAD 
                                                   Max.-Head-Change                         Max.-Flux-Residual
  Residual-Control   Outer-Iter.   Inner-Iter.     Column Row Layer    Maximum-Head-Change  Column Row Layer    Maximum-Flux-Residual          L2-NORM 
          0                 1           2             5   10     1      -0.1796303888E-01       5   10    1        -0.5883071250E+00      0.1773667915E+01
          0                 2           2             5   10     1       0.1779961241E-02       5   10    1         0.5883017823E-01      0.1773661392E+00
          0                 3           2             5   10     1      -0.1587416620E-03       5   10    1        -0.5294721938E-02      0.1596296091E-01
          0                 4           1             5   10     1       0.1259982932E-04       5   10    1         0.4241072902E-03      0.1278633441E-02

    ------------------------------------------------
       NWT REQUIRED            4 OUTER ITERATIONS 
       AND A TOTAL OF          7 INNER ITERATIONS.
    ------------------------------------------------

 NO OUTPUT CONTROL FOR STRESS PERIOD    7   TIME STEP    7
 
 SOLVING FOR HEAD 
                                                   Max.-Head-Change                         Max.-Flux-Residual
  Residual-Control   Outer-Iter.   Inner-Iter.     Column Row Layer    Maximum-Head-Change  Column Row Layer    Maximum-Flux-Residual          L2-NORM 
          0                 1           2             5   10     1      -0.1871070822E-01       5   10    1        -0.5584118490E+00      0.1739675157E+01
          0                 2           2             5   10     1       0.1854046050E-02       5   10    1         0.5584060142E-01      0.1739668120E+00
          0                 3           2             5   10     1      -0.1653487607E-03       5   10    1        -0.5025660475E-02      0.1565702194E-01
          0                 4           1             5   10     1       0.1312425594E-04       5   10    1         0.4025554595E-03      0.1254127717E-02

    ------------------------------------------------
       NWT REQUIRED            4 OUTER ITERATIONS 
       AND A TOTAL OF          7 INNER ITERATIONS.
    ------------------------------------------------

 NO OUTPUT CONTROL FOR STRESS PERIOD    7   TIME STEP    8
 
 SOLVING FOR HEAD 
                                                   Max.-Head-Change                         Max.-Flux-Residual
  Residual-Control   Outer-Iter.   Inner-Iter.     Column Row Layer    Maximum-Head-Change  Column Row Layer    Maximum-Flux-Residual          L2-NORM 
          0                 1           2             5   10     1      -0.1944782163E-01       5   10    1        -0.5287724481E+00      0.1707334801E+01
          0                 2           2             5   10     1       0.1927084531E-02       5   10    1         0.5287661213E-01      0.1707327294E+00
          0                 3           2             5   10     1      -0.1718625486E-03       5   10    1        -0.4758901893E-02      0.1536595492E-01
          0                 4           1             5   10     1       0.1364127585E-04       5   10    1         0.3811880902E-03      0.1230813248E-02

    ------------------------------------------------
       NWT REQUIRED            4 OUTER ITERATIONS 
       AND A TOTAL OF          7 INNER ITERATIONS.
    ------------------------------------------------

 NO OUTPUT CONTROL FOR STRESS PERIOD    7   TIME STEP    9
 
 SOLVING FOR HEAD 
                                                   Max.-Head-Change                         Max.-Flux-Residual
  Residual-Control   Outer-Iter.   Inner-Iter.     Column Row Layer    Maximum-Head-Change  Column Row Layer    Maximum-Flux-Residual          L2-NORM 
          0                 1           2             5    6     1      -0.2020871831E-01       5   10    1        -0.4996433992E+00      0.1676979302E+01
          0                 2           2             5    6     1       0.2002479122E-02       5   10    1         0.4996365925E-01      0.1676971389E+00
          0                 3           2             5    6     1      -0.1785864659E-03       5   10    1        -0.4496736567E-02      0.1509275215E-01
          0                 4           1             5    6     1       0.1417497416E-04       5   10    1         0.3601886406E-03      0.1208929690E-02

    ------------------------------------------------
       NWT REQUIRED            4 OUTER ITERATIONS 
       AND A TOTAL OF          7 INNER ITERATIONS.
    ------------------------------------------------

 OUTPUT CONTROL FOR STRESS PERIOD    7   TIME STEP   10
    PRINT BUDGET
    SAVE BUDGET

            WELLS   PERIOD    7   STEP  10
 WELL      1   LAYER   1   ROW     6   COL     4   RATE    -2.00000    
 WELL      2   LAYER   1   ROW     6   COL     5   RATE    -2.00000    
 WELL      3   LAYER   1   ROW     7   COL     4   RATE    -2.00000    
 WELL      4   LAYER   1   ROW     7   COL     5   RATE    -2.00000    
 WELL      5   LAYER   1   ROW     8   COL     4   RATE    -2.00000    
 WELL      6   LAYER   1   ROW     8   COL     5   RATE    -2.00000    
 WELL      7   LAYER   1   ROW     9   COL     4   RATE    -2.00000    
 WELL      8   LAYER   1   ROW     9   COL     5   RATE    -2.00000    
 WELL      9   LAYER   1   ROW    10   COL     4   RATE    -2.00000    
 WELL     10   LAYER   1   ROW    10   COL     5   RATE    -2.00000    

  HEAD DEP BOUNDS   PERIOD    7   STEP  10
 BOUNDARY      1   LAYER   1   ROW    13   COL     1   RATE    0.760576    
 BOUNDARY      2   LAYER   1   ROW    14   COL     9   RATE     2.37060    



 STREAM LISTING     PERIOD      7   STEP       10

 LAYER ROW COL. STREAM  RCH.  FLOW INTO     FLOW TO   FLOW OUT OF   OVRLND.     DIRECT     STREAM       STREAM     STREAM     STREAM   STREAMBED  STREAMBED
                SEG.NO.  NO.  STRM. RCH.    AQUIFER    STRM. RCH.    RUNOFF     PRECIP       ET          HEAD       DEPTH      WIDTH   CONDCTNC.   GRADIENT

   1    1    1     1     1    2.5000E+01  2.4515E-09   2.5000E+01  0.000E+00  0.000E+00  0.000E+00  1.09423E+03  1.178E+00  1.304E+01  5.867E-10  1.393E+00
   1    2    2     1     2    2.5000E+01  3.8085E-09   2.5000E+01  0.000E+00  0.000E+00  0.000E+00  1.08924E+03  1.177E+00  1.302E+01  9.117E-10  1.392E+00
   1    3    3     1     3    2.5000E+01  3.2661E-09   2.5000E+01  0.000E+00  0.000E+00  0.000E+00  1.08360E+03  1.178E+00  1.303E+01  7.818E-10  1.393E+00
   1    3    4     1     4    2.5000E+01  3.0219E-09   2.5000E+01  0.000E+00  0.000E+00  0.000E+00  1.07859E+03  1.178E+00  1.303E+01  7.233E-10  1.393E+00
   1    4    5     2     1    1.5000E+01  3.0290E-01   1.4697E+01  0.000E+00  0.000E+00  0.000E+00  1.07282E+03  8.834E-01  1.200E+01  7.800E-02  1.294E+00
   1    5    6     2     2    1.4697E+01  2.3243E-01   1.4465E+01  0.000E+00  0.000E+00  0.000E+00  1.06738E+03  8.738E-01  1.200E+01  6.000E-02  1.291E+00
   1    6    6     2     3    1.4465E+01  2.3193E-01   1.4233E+01  0.000E+00  0.000E+00  0.000E+00  1.06266E+03  8.654E-01  1.200E+01  6.000E-02  1.288E+00
   1    7    6     2     4    1.4233E+01  2.3142E-01   1.4001E+01  0.000E+00  0.000E+00  0.000E+00  1.05793E+03  8.570E-01  1.200E+01  6.000E-02  1.286E+00
   1    8    6     2     5    1.4001E+01  2.3091E-01   1.3770E+01  0.000E+00  0.000E+00  0.000E+00  1.05321E+03  8.486E-01  1.200E+01  6.000E-02  1.283E+00
   1    3    5     3     1    1.0000E+01  2.8252E-01   9.7175E+00  0.000E+00  0.000E+00  0.000E+00  1.07555E+03  1.909E+00  9.636E+00  7.227E-02  1.955E+00
   1    3    6     3     2    9.7175E+00  2.4905E-01   9.4684E+00  0.000E+00  0.000E+00  0.000E+00  1.07264E+03  1.727E+00  8.909E+00  6.682E-02  1.864E+00
   1    3    7     3     3    9.4684E+00  1.9718E-01   9.2712E+00  0.000E+00  0.000E+00  0.000E+00  1.06987E+03  1.555E+00  8.218E+00  5.547E-02  1.777E+00
   1    4    8     3     4    9.2712E+00  2.2567E-01   9.0456E+00  0.000E+00  0.000E+00  0.000E+00  1.06682E+03  1.364E+00  7.455E+00  6.709E-02  1.682E+00
   1    5    8     3     5    9.0456E+00  1.5790E-01   8.8877E+00  0.000E+00  0.000E+00  0.000E+00  1.06362E+03  1.164E+00  6.655E+00  4.991E-02  1.582E+00
   1    6    8     3     6    8.8877E+00  5.5980E-02   8.8317E+00  0.000E+00  0.000E+00  0.000E+00  1.06158E+03  1.036E+00  6.145E+00  1.844E-02  1.518E+00
   1    5   10     4     1    1.0000E+01  9.0919E-02   9.9091E+00  0.000E+00  0.000E+00  0.000E+00  1.07836E+03  6.368E-01  1.000E+01  2.500E-02  1.212E+00
   1    5    9     4     2    9.9091E+00  1.8158E-01   9.7275E+00  0.000E+00  0.000E+00  0.000E+00  1.07154E+03  6.315E-01  1.000E+01  5.000E-02  1.211E+00
   1    6    8     4     3    9.7275E+00  1.2689E-01   9.6006E+00  0.000E+00  0.000E+00  0.000E+00  1.06381E+03  6.256E-01  1.000E+01  3.500E-02  1.209E+00
   1    6    8     5     1    1.8432E+01  3.3262E-09   1.8432E+01  0.000E+00  0.000E+00  0.000E+00  1.05883E+03  8.293E-01  2.172E+01  8.686E-10  1.276E+00
   1    7    7     5     2    1.8432E+01  4.1514E-09   1.8432E+01  0.000E+00  0.000E+00  0.000E+00  1.05433E+03  8.286E-01  2.169E+01  1.084E-09  1.276E+00
   1    8    7     5     3    1.8432E+01  2.9126E-09   1.8432E+01  0.000E+00  0.000E+00  0.000E+00  1.05008E+03  8.296E-01  2.173E+01  7.606E-10  1.277E+00
   1    8    6     5     4    1.8432E+01  2.0836E-09   1.8432E+01  0.000E+00  0.000E+00  0.000E+00  1.04708E+03  8.303E-01  2.176E+01  5.440E-10  1.277E+00
   1    9    6     6     1    3.2203E+01  2.6507E-01   3.1938E+01  0.000E+00  0.000E+00  0.000E+00  1.04415E+03  1.418E+00  1.200E+01  6.000E-02  1.473E+00
   1   10    7     6     2    3.1938E+01  2.6465E-01   3.1673E+01  0.000E+00  0.000E+00  0.000E+00  1.03959E+03  1.411E+00  1.200E+01  6.000E-02  1.470E+00
   1   11    7     6     3    3.1673E+01  2.6423E-01   3.1409E+01  0.000E+00  0.000E+00  0.000E+00  1.03504E+03  1.404E+00  1.200E+01  6.000E-02  1.468E+00
   1   12    7     6     4    3.1409E+01  2.6380E-01   3.1145E+01  0.000E+00  0.000E+00  0.000E+00  1.03049E+03  1.397E+00  1.200E+01  6.000E-02  1.466E+00
   1   13    7     6     5    3.1145E+01  1.0540E-01   3.1040E+01  0.000E+00  0.000E+00  0.000E+00  1.02730E+03  1.392E+00  1.200E+01  2.400E-02  1.464E+00
   1   14    9     7     1    1.5000E+02  2.9539E-14   1.5000E+02  0.000E+00  0.000E+00  0.000E+00  1.03986E+03  2.283E+00  5.528E+01  5.591E-15  1.761E+00
   1   13    8     7     2    1.5000E+02  3.2486E-13   1.5000E+02  0.000E+00  0.000E+00  0.000E+00  1.03478E+03  2.283E+00  5.527E+01  6.150E-14  1.761E+00
   1   13    7     7     3    1.5000E+02  2.9539E-14   1.5000E+02  0.000E+00  0.000E+00  0.000E+00  1.02970E+03  2.283E+00  5.528E+01  5.591E-15  1.761E+00
   1   13    6     8     1    1.8104E+02  0.0000E+00   1.8104E+02  0.000E+00  0.000E+00  0.000E+00  1.02490E+03  3.023E+00  4.383E+01  0.000E+00  2.008E+00
   1   13    5     8     2    1.8104E+02  2.6787E-12   1.8104E+02  0.000E+00  0.000E+00  0.000E+00  1.01864E+03  3.014E+00  4.371E+01  4.454E-13  2.005E+00
   1   13    4     8     3    1.8104E+02  2.6787E-12   1.8104E+02  0.000E+00  0.000E+00  0.000E+00  1.01239E+03  3.014E+00  4.371E+01  4.454E-13  2.005E+00
   1   13    3     8     4    1.8104E+02  2.6787E-12   1.8104E+02  0.000E+00  0.000E+00  0.000E+00  1.00614E+03  3.014E+00  4.371E+01  4.454E-13  2.005E+00
   1   13    2     8     5    1.8104E+02  2.6787E-12   1.8104E+02  0.000E+00  0.000E+00  0.000E+00  9.99889E+02  3.014E+00  4.371E+01  4.454E-13  2.005E+00
   1   13    1     8     6    1.8104E+02  1.6099E-08   1.8104E+02  0.000E+00  0.000E+00  0.000E+00  9.94893E+02  3.018E+00  4.376E+01  2.675E-09  2.006E+00



 UBDSV3 SAVING "     NETRECHARGE" ON UNIT 100 AT TIME STEP 10, STRESS PERIOD   7
 UBDSV3 SAVING "    NETDISCHARGE" ON UNIT 101 AT TIME STEP 10, STRESS PERIOD   7
 UBDSV3 SAVING "           GW ET" ON UNIT  61 AT TIME STEP 10, STRESS PERIOD   7
 UBDSV3 SAVING "    UZF RECHARGE" ON UNIT  61 AT TIME STEP 10, STRESS PERIOD   7
 UBDSV3 SAVING " SURFACE LEAKAGE" ON UNIT  61 AT TIME STEP 10, STRESS PERIOD   7
 UBDSV3 SAVING "       HORT+DUNN" ON UNIT  61 AT TIME STEP 10, STRESS PERIOD   7
 UBDSV3 SAVING "  STORAGE CHANGE" ON UNIT  61 AT TIME STEP 10, STRESS PERIOD   7


UNSATURATED ZONE PACKAGE VOLUMETRIC BUDGET FOR  TIME STEP    10 STRESS PERIOD    7
  ------------------------------------------------------------------------------



     CUMULATIVE VOLUMES      L**3       RATES FOR THIS TIME STEP      L**3/T
     ------------------                 ------------------------

           IN:                                      IN:
           ---                                      ---
        INFILTRATION =    49550072.7207          INFILTRATION =           2.9000

          OUT:                                     OUT:
          ----                                     ----
              UZF ET =    12471043.9558                UZF ET =           1.1603
        UZF RECHARGE =     7621246.6355          UZF RECHARGE =       0.0000E+00

            IN - OUT =    29457782.1294              IN - OUT =           1.7397

          STORAGE:                                 STORAGE:
          --------                                 --------
      STORAGE CHANGE =    29457782.0387        STORAGE CHANGE =           1.7397

 PERCENT DISCREPANCY IS DIFFERENCE BETWEEN IN-OUT MINUS CHANGE IN STORAGE
 DIVIDED BY THE AVERAGE OF IN AND OUT TIMES 100

 PERCENT DISCREPANCY =           0.00     PERCENT DISCREPANCY =           0.00






1
  VOLUMETRIC BUDGET FOR ENTIRE MODEL AT END OF TIME STEP   10, STRESS PERIOD   7
  ------------------------------------------------------------------------------

     CUMULATIVE VOLUMES      L**3       RATES FOR THIS TIME STEP      L**3/T
     ------------------                 ------------------------

           IN:                                      IN:
           ---                                      ---
             STORAGE =   368463264.0000               STORAGE =          12.9077
       CONSTANT HEAD =           0.0000         CONSTANT HEAD =           0.0000
               WELLS =           0.0000                 WELLS =           0.0000
     HEAD DEP BOUNDS =    53444908.0000       HEAD DEP BOUNDS =           3.1312
      STREAM LEAKAGE =    67808064.0000        STREAM LEAKAGE =           3.9604
        UZF RECHARGE =     7621252.0000          UZF RECHARGE =           0.0000
               GW ET =           0.0000                 GW ET =           0.0000
     SURFACE LEAKAGE =           0.0000       SURFACE LEAKAGE =           0.0000

            TOTAL IN =   497337472.0000              TOTAL IN =          19.9993

          OUT:                                     OUT:
          ----                                     ----
             STORAGE =    50505824.0000               STORAGE =           0.0000
       CONSTANT HEAD =           0.0000         CONSTANT HEAD =           0.0000
               WELLS =   446844672.0000                 WELLS =          20.0000
     HEAD DEP BOUNDS =           0.0000       HEAD DEP BOUNDS =           0.0000
      STREAM LEAKAGE =           0.0000        STREAM LEAKAGE =           0.0000
        UZF RECHARGE =           0.0000          UZF RECHARGE =           0.0000
               GW ET =           0.0000                 GW ET =           0.0000
     SURFACE LEAKAGE =           0.0000       SURFACE LEAKAGE =           0.0000

           TOTAL OUT =   497350496.0000             TOTAL OUT =          20.0000

            IN - OUT =      -13024.0000              IN - OUT =      -6.5041E-04

 PERCENT DISCREPANCY =          -0.00     PERCENT DISCREPANCY =          -0.00






         TIME SUMMARY AT END OF TIME STEP   10 IN STRESS PERIOD    7
                    SECONDS     MINUTES      HOURS       DAYS        YEARS
                    -----------------------------------------------------------
   TIME STEP LENGTH 1.95033E+05  3250.6      54.176      2.2573     6.18023E-03
 STRESS PERIOD TIME 1.31823E+06  21971.      366.18      15.257     4.17723E-02
         TOTAL TIME 1.70862E+07 2.84770E+05  4746.2      197.76     0.54143    
1
 
 SOLVING FOR HEAD 
                                                   Max.-Head-Change                         Max.-Flux-Residual
  Residual-Control   Outer-Iter.   Inner-Iter.     Column Row Layer    Maximum-Head-Change  Column Row Layer    Maximum-Flux-Residual          L2-NORM 
          0                 1           2             5    6     1      -0.2101984711E-01       5    6    1        -0.4719415266E+00      0.1648895247E+01
          0                 2           2             5    6     1       0.2082850886E-02       5    6    1         0.4719341373E-01      0.1648887011E+00
          0                 3           2             5    6     1      -0.1857542639E-03       5    6    1        -0.4247415013E-02      0.1483999302E-01
          0                 4           1             5    6     1       0.1474390472E-04       5    6    1         0.3402179709E-03      0.1188683676E-02

    ------------------------------------------------
       NWT REQUIRED            4 OUTER ITERATIONS 
       AND A TOTAL OF          7 INNER ITERATIONS.
    ------------------------------------------------

 NO OUTPUT CONTROL FOR STRESS PERIOD    7   TIME STEP   11
 
 SOLVING FOR HEAD 
                                                   Max.-Head-Change                         Max.-Flux-Residual
  Residual-Control   Outer-Iter.   Inner-Iter.     Column Row Layer    Maximum-Head-Change  Column Row Layer    Maximum-Flux-Residual          L2-NORM 
          0                 1           2             5    6     1      -0.2184111668E-01       5    6    1        -0.4462581190E+00      0.1623309598E+01
          0                 2           2             5    6     1       0.2164227134E-02       5    6    1         0.4462502234E-01      0.1623301138E+00
          0                 3           2             5    6     1      -0.1930116486E-03       5    6    1        -0.4016260260E-02      0.1460972036E-01
          0                 4           1             5    6     1       0.1531994631E-04       5    6    1         0.3217024660E-03      0.1170238838E-02

    ------------------------------------------------
       NWT REQUIRED            4 OUTER ITERATIONS 
       AND A TOTAL OF          7 INNER ITERATIONS.
    ------------------------------------------------

 NO OUTPUT CONTROL FOR STRESS PERIOD    7   TIME STEP   12
 
 SOLVING FOR HEAD 
                                                   Max.-Head-Change                         Max.-Flux-Residual
  Residual-Control   Outer-Iter.   Inner-Iter.     Column Row Layer    Maximum-Head-Change  Column Row Layer    Maximum-Flux-Residual          L2-NORM 
          0                 1           2             5    6     1      -0.2268340149E-01       5    6    1        -0.4215394602E+00      0.1600366687E+01
          0                 2           2             5    6     1       0.2247685478E-02       5    6    1         0.4215311080E-01      0.1600358113E+00
          0                 3           2             5    6     1      -0.2004547233E-03       5    6    1        -0.3793788645E-02      0.1440323322E-01
          0                 4           1             5    6     1       0.1591072627E-04       5    6    1         0.3038824839E-03      0.1153699210E-02

    ------------------------------------------------
       NWT REQUIRED            4 OUTER ITERATIONS 
       AND A TOTAL OF          7 INNER ITERATIONS.
    ------------------------------------------------

 NO OUTPUT CONTROL FOR STRESS PERIOD    7   TIME STEP   13
 
 SOLVING FOR HEAD 
                                                   Max.-Head-Change                         Max.-Flux-Residual
  Residual-Control   Outer-Iter.   Inner-Iter.     Column Row Layer    Maximum-Head-Change  Column Row Layer    Maximum-Flux-Residual          L2-NORM 
          0                 1           2             5    6     1      -0.2356139194E-01       5    6    1        -0.3979972508E+00      0.1580128902E+01
          0                 2           2             5    6     1       0.2334681681E-02       5    6    1         0.3979885104E-01      0.1580120322E+00
          0                 3           2             5    6     1      -0.2082133157E-03       5    6    1        -0.3581905623E-02      0.1422109309E-01
          0                 4           1             5    6     1       0.1652655006E-04       5    6    1         0.2869106461E-03      0.1139109775E-02

    ------------------------------------------------
       NWT REQUIRED            4 OUTER ITERATIONS 
       AND A TOTAL OF          7 INNER ITERATIONS.
    ------------------------------------------------

 NO OUTPUT CONTROL FOR STRESS PERIOD    7   TIME STEP   14
 
 SOLVING FOR HEAD 
                                                   Max.-Head-Change                         Max.-Flux-Residual
  Residual-Control   Outer-Iter.   Inner-Iter.     Column Row Layer    Maximum-Head-Change  Column Row Layer    Maximum-Flux-Residual          L2-NORM 
          0                 1           2             5    6     1      -0.2449353649E-01       5    6    1        -0.3758200254E+00      0.1562562117E+01
          0                 2           2             5    6     1       0.2427043925E-02       5    6    1         0.3758109831E-01      0.1562553633E+00
          0                 3           2             5    6     1      -0.2164504664E-03       5    6    1        -0.3382308145E-02      0.1406299278E-01
          0                 4           1             5    6     1       0.1718035847E-04       5    6    1         0.2709228788E-03      0.1126445941E-02

    ------------------------------------------------
       NWT REQUIRED            4 OUTER ITERATIONS 
       AND A TOTAL OF          7 INNER ITERATIONS.
    ------------------------------------------------

 OUTPUT CONTROL FOR STRESS PERIOD    7   TIME STEP   15
    PRINT BUDGET
    PRINT HEAD FOR ALL LAYERS
    SAVE HEAD FOR ALL LAYERS
    SAVE BUDGET

            WELLS   PERIOD    7   STEP  15
 WELL      1   LAYER   1   ROW     6   COL     4   RATE    -2.00000    
 WELL      2   LAYER   1   ROW     6   COL     5   RATE    -2.00000    
 WELL      3   LAYER   1   ROW     7   COL     4   RATE    -2.00000    
 WELL      4   LAYER   1   ROW     7   COL     5   RATE    -2.00000    
 WELL      5   LAYER   1   ROW     8   COL     4   RATE    -2.00000    
 WELL      6   LAYER   1   ROW     8   COL     5   RATE    -2.00000    
 WELL      7   LAYER   1   ROW     9   COL     4   RATE    -2.00000    
 WELL      8   LAYER   1   ROW     9   COL     5   RATE    -2.00000    
 WELL      9   LAYER   1   ROW    10   COL     4   RATE    -2.00000    
 WELL     10   LAYER   1   ROW    10   COL     5   RATE    -2.00000    

  HEAD DEP BOUNDS   PERIOD    7   STEP  15
 BOUNDARY      1   LAYER   1   ROW    13   COL     1   RATE    0.760851    
 BOUNDARY      2   LAYER   1   ROW    14   COL     9   RATE     2.37086    



 STREAM LISTING     PERIOD      7   STEP       15

 LAYER ROW COL. STREAM  RCH.  FLOW INTO     FLOW TO   FLOW OUT OF   OVRLND.     DIRECT     STREAM       STREAM     STREAM     STREAM   STREAMBED  STREAMBED
                SEG.NO.  NO.  STRM. RCH.    AQUIFER    STRM. RCH.    RUNOFF     PRECIP       ET          HEAD       DEPTH      WIDTH   CONDCTNC.   GRADIENT

   1    1    1     1     1    2.5000E+01  2.4515E-09   2.5000E+01  0.000E+00  0.000E+00  0.000E+00  1.09423E+03  1.178E+00  1.304E+01  5.867E-10  1.393E+00
   1    2    2     1     2    2.5000E+01  3.8085E-09   2.5000E+01  0.000E+00  0.000E+00  0.000E+00  1.08924E+03  1.177E+00  1.302E+01  9.117E-10  1.392E+00
   1    3    3     1     3    2.5000E+01  3.2661E-09   2.5000E+01  0.000E+00  0.000E+00  0.000E+00  1.08360E+03  1.178E+00  1.303E+01  7.818E-10  1.393E+00
   1    3    4     1     4    2.5000E+01  3.0219E-09   2.5000E+01  0.000E+00  0.000E+00  0.000E+00  1.07859E+03  1.178E+00  1.303E+01  7.233E-10  1.393E+00
   1    4    5     2     1    1.5000E+01  3.0290E-01   1.4697E+01  0.000E+00  0.000E+00  0.000E+00  1.07282E+03  8.834E-01  1.200E+01  7.800E-02  1.294E+00
   1    5    6     2     2    1.4697E+01  2.3243E-01   1.4465E+01  0.000E+00  0.000E+00  0.000E+00  1.06738E+03  8.738E-01  1.200E+01  6.000E-02  1.291E+00
   1    6    6     2     3    1.4465E+01  2.3193E-01   1.4233E+01  0.000E+00  0.000E+00  0.000E+00  1.06266E+03  8.654E-01  1.200E+01  6.000E-02  1.288E+00
   1    7    6     2     4    1.4233E+01  2.3142E-01   1.4001E+01  0.000E+00  0.000E+00  0.000E+00  1.05793E+03  8.570E-01  1.200E+01  6.000E-02  1.286E+00
   1    8    6     2     5    1.4001E+01  2.3091E-01   1.3770E+01  0.000E+00  0.000E+00  0.000E+00  1.05321E+03  8.486E-01  1.200E+01  6.000E-02  1.283E+00
   1    3    5     3     1    1.0000E+01  2.8252E-01   9.7175E+00  0.000E+00  0.000E+00  0.000E+00  1.07555E+03  1.909E+00  9.636E+00  7.227E-02  1.955E+00
   1    3    6     3     2    9.7175E+00  2.4905E-01   9.4684E+00  0.000E+00  0.000E+00  0.000E+00  1.07264E+03  1.727E+00  8.909E+00  6.682E-02  1.864E+00
   1    3    7     3     3    9.4684E+00  1.9718E-01   9.2712E+00  0.000E+00  0.000E+00  0.000E+00  1.06987E+03  1.555E+00  8.218E+00  5.547E-02  1.777E+00
   1    4    8     3     4    9.2712E+00  2.2567E-01   9.0456E+00  0.000E+00  0.000E+00  0.000E+00  1.06682E+03  1.364E+00  7.455E+00  6.709E-02  1.682E+00
   1    5    8     3     5    9.0456E+00  1.5790E-01   8.8877E+00  0.000E+00  0.000E+00  0.000E+00  1.06362E+03  1.164E+00  6.655E+00  4.991E-02  1.582E+00
   1    6    8     3     6    8.8877E+00  5.5980E-02   8.8317E+00  0.000E+00  0.000E+00  0.000E+00  1.06158E+03  1.036E+00  6.145E+00  1.844E-02  1.518E+00
   1    5   10     4     1    1.0000E+01  9.0919E-02   9.9091E+00  0.000E+00  0.000E+00  0.000E+00  1.07836E+03  6.368E-01  1.000E+01  2.500E-02  1.212E+00
   1    5    9     4     2    9.9091E+00  1.8158E-01   9.7275E+00  0.000E+00  0.000E+00  0.000E+00  1.07154E+03  6.315E-01  1.000E+01  5.000E-02  1.211E+00
   1    6    8     4     3    9.7275E+00  1.2689E-01   9.6006E+00  0.000E+00  0.000E+00  0.000E+00  1.06381E+03  6.256E-01  1.000E+01  3.500E-02  1.209E+00
   1    6    8     5     1    1.8432E+01  3.3262E-09   1.8432E+01  0.000E+00  0.000E+00  0.000E+00  1.05883E+03  8.293E-01  2.172E+01  8.686E-10  1.276E+00
   1    7    7     5     2    1.8432E+01  4.1514E-09   1.8432E+01  0.000E+00  0.000E+00  0.000E+00  1.05433E+03  8.286E-01  2.169E+01  1.084E-09  1.276E+00
   1    8    7     5     3    1.8432E+01  2.9126E-09   1.8432E+01  0.000E+00  0.000E+00  0.000E+00  1.05008E+03  8.296E-01  2.173E+01  7.606E-10  1.277E+00
   1    8    6     5     4    1.8432E+01  2.0836E-09   1.8432E+01  0.000E+00  0.000E+00  0.000E+00  1.04708E+03  8.303E-01  2.176E+01  5.440E-10  1.277E+00
   1    9    6     6     1    3.2203E+01  2.6507E-01   3.1938E+01  0.000E+00  0.000E+00  0.000E+00  1.04415E+03  1.418E+00  1.200E+01  6.000E-02  1.473E+00
   1   10    7     6     2    3.1938E+01  2.6465E-01   3.1673E+01  0.000E+00  0.000E+00  0.000E+00  1.03959E+03  1.411E+00  1.200E+01  6.000E-02  1.470E+00
   1   11    7     6     3    3.1673E+01  2.6423E-01   3.1409E+01  0.000E+00  0.000E+00  0.000E+00  1.03504E+03  1.404E+00  1.200E+01  6.000E-02  1.468E+00
   1   12    7     6     4    3.1409E+01  2.6380E-01   3.1145E+01  0.000E+00  0.000E+00  0.000E+00  1.03049E+03  1.397E+00  1.200E+01  6.000E-02  1.466E+00
   1   13    7     6     5    3.1145E+01  1.0540E-01   3.1040E+01  0.000E+00  0.000E+00  0.000E+00  1.02730E+03  1.392E+00  1.200E+01  2.400E-02  1.464E+00
   1   14    9     7     1    1.5000E+02  2.9539E-14   1.5000E+02  0.000E+00  0.000E+00  0.000E+00  1.03986E+03  2.283E+00  5.528E+01  5.591E-15  1.761E+00
   1   13    8     7     2    1.5000E+02  3.2486E-13   1.5000E+02  0.000E+00  0.000E+00  0.000E+00  1.03478E+03  2.283E+00  5.527E+01  6.150E-14  1.761E+00
   1   13    7     7     3    1.5000E+02  2.9539E-14   1.5000E+02  0.000E+00  0.000E+00  0.000E+00  1.02970E+03  2.283E+00  5.528E+01  5.591E-15  1.761E+00
   1   13    6     8     1    1.8104E+02  0.0000E+00   1.8104E+02  0.000E+00  0.000E+00  0.000E+00  1.02490E+03  3.023E+00  4.383E+01  0.000E+00  2.008E+00
   1   13    5     8     2    1.8104E+02  2.6787E-12   1.8104E+02  0.000E+00  0.000E+00  0.000E+00  1.01864E+03  3.014E+00  4.371E+01  4.454E-13  2.005E+00
   1   13    4     8     3    1.8104E+02  2.6787E-12   1.8104E+02  0.000E+00  0.000E+00  0.000E+00  1.01239E+03  3.014E+00  4.371E+01  4.454E-13  2.005E+00
   1   13    3     8     4    1.8104E+02  2.6787E-12   1.8104E+02  0.000E+00  0.000E+00  0.000E+00  1.00614E+03  3.014E+00  4.371E+01  4.454E-13  2.005E+00
   1   13    2     8     5    1.8104E+02  2.6787E-12   1.8104E+02  0.000E+00  0.000E+00  0.000E+00  9.99889E+02  3.014E+00  4.371E+01  4.454E-13  2.005E+00
   1   13    1     8     6    1.8104E+02  1.6099E-08   1.8104E+02  0.000E+00  0.000E+00  0.000E+00  9.94893E+02  3.018E+00  4.376E+01  2.675E-09  2.006E+00



 UBDSV3 SAVING "     NETRECHARGE" ON UNIT 100 AT TIME STEP 15, STRESS PERIOD   7
 UBDSV3 SAVING "    NETDISCHARGE" ON UNIT 101 AT TIME STEP 15, STRESS PERIOD   7
 UBDSV3 SAVING "           GW ET" ON UNIT  61 AT TIME STEP 15, STRESS PERIOD   7
 UBDSV3 SAVING "    UZF RECHARGE" ON UNIT  61 AT TIME STEP 15, STRESS PERIOD   7
 UBDSV3 SAVING " SURFACE LEAKAGE" ON UNIT  61 AT TIME STEP 15, STRESS PERIOD   7
 UBDSV3 SAVING "       HORT+DUNN" ON UNIT  61 AT TIME STEP 15, STRESS PERIOD   7
 UBDSV3 SAVING "  STORAGE CHANGE" ON UNIT  61 AT TIME STEP 15, STRESS PERIOD   7


UNSATURATED ZONE PACKAGE VOLUMETRIC BUDGET FOR  TIME STEP    15 STRESS PERIOD    7
  ------------------------------------------------------------------------------



     CUMULATIVE VOLUMES      L**3       RATES FOR THIS TIME STEP      L**3/T
     ------------------                 ------------------------

           IN:                                      IN:
           ---                                      ---
        INFILTRATION =    53348395.0723          INFILTRATION =           2.9000

          OUT:                                     OUT:
          ----                                     ----
              UZF ET =    14002465.3772                UZF ET =           1.1749
        UZF RECHARGE =     7621246.6355          UZF RECHARGE =       0.0000E+00

            IN - OUT =    31724683.0596              IN - OUT =           1.7251

          STORAGE:                                 STORAGE:
          --------                                 --------
      STORAGE CHANGE =    31724683.0014        STORAGE CHANGE =           1.7251

 PERCENT DISCREPANCY IS DIFFERENCE BETWEEN IN-OUT MINUS CHANGE IN STORAGE
 DIVIDED BY THE AVERAGE OF IN AND OUT TIMES 100

 PERCENT DISCREPANCY =           0.00     PERCENT DISCREPANCY =           0.00






1
              HEAD IN LAYER   1 AT END OF TIME STEP  15 IN STRESS PERIOD    7
  ---------------------------------------------------------------------------

           1       2       3       4       5       6       7       8       9      10
 ...................................................................................
   1  1003.34 1000.47 6999.00 6999.00 6999.00 6999.00 6999.00 6999.00 6999.00 6999.00
   2  1000.94  958.82  958.25 6999.00 6999.00  964.42  964.89  965.27 6999.00 6999.00
   3  6999.00  957.96  957.34  957.07  958.08  959.55  960.79  961.60 6999.00 6999.00
   4   959.08  957.59  956.68  956.17  956.49  956.98  958.31  960.72  962.01 6999.00
   5   958.72  956.78  955.43  954.57  955.04  956.11  957.06  958.20  959.73  964.25
   6   958.35  956.10  953.93  952.29  952.97  955.09  956.47  957.59  959.03  972.20
   7   958.12  955.71  953.07  951.12  951.99  954.43  956.02  957.10  960.78 6999.00
   8  6999.00  955.80  953.03  950.87  951.85  954.30  955.90  957.53  962.34 6999.00
   9  6999.00  956.44  953.78  951.71  952.61  954.91  956.53  958.49  963.47 6999.00
  10  6999.00  957.69  955.39  953.54  954.17  956.14  957.69  959.76  963.76  967.34
  11  6999.00  959.57  957.87  956.52  956.88  958.01  959.47  961.69  965.89 6999.00
  12   965.95  961.61  959.68  958.70  958.84  959.78  961.29  964.69  970.85 6999.00
  13   967.98  962.85  960.77  959.96  960.07  961.15  963.46  967.90  976.59 6999.00
  14  6999.00  963.98  961.50  961.20  961.57  963.03  966.37  973.55  982.61 6999.00
  15  6999.00 6999.00  965.49  965.49  965.78  966.31 6999.00 6999.00 6999.00 6999.00

 HEAD WILL BE SAVED ON UNIT   58 AT END OF TIME STEP   15, STRESS PERIOD    7
1
  VOLUMETRIC BUDGET FOR ENTIRE MODEL AT END OF TIME STEP   15, STRESS PERIOD   7
  ------------------------------------------------------------------------------

     CUMULATIVE VOLUMES      L**3       RATES FOR THIS TIME STEP      L**3/T
     ------------------                 ------------------------

           IN:                                      IN:
           ---                                      ---
             STORAGE =   385368928.0000               STORAGE =          12.9072
       CONSTANT HEAD =           0.0000         CONSTANT HEAD =           0.0000
               WELLS =           0.0000                 WELLS =           0.0000
     HEAD DEP BOUNDS =    57546432.0000       HEAD DEP BOUNDS =           3.1317
      STREAM LEAKAGE =    72995312.0000        STREAM LEAKAGE =           3.9604
        UZF RECHARGE =     7621252.0000          UZF RECHARGE =           0.0000
               GW ET =           0.0000                 GW ET =           0.0000
     SURFACE LEAKAGE =           0.0000       SURFACE LEAKAGE =           0.0000

            TOTAL IN =   523531904.0000              TOTAL IN =          19.9994

          OUT:                                     OUT:
          ----                                     ----
             STORAGE =    50505824.0000               STORAGE =           0.0000
       CONSTANT HEAD =           0.0000         CONSTANT HEAD =           0.0000
               WELLS =   473040000.0000                 WELLS =          20.0000
     HEAD DEP BOUNDS =           0.0000       HEAD DEP BOUNDS =           0.0000
      STREAM LEAKAGE =           0.0000        STREAM LEAKAGE =           0.0000
        UZF RECHARGE =           0.0000          UZF RECHARGE =           0.0000
               GW ET =           0.0000                 GW ET =           0.0000
     SURFACE LEAKAGE =           0.0000       SURFACE LEAKAGE =           0.0000

           TOTAL OUT =   523545824.0000             TOTAL OUT =          20.0000

            IN - OUT =      -13920.0000              IN - OUT =      -6.4850E-04

 PERCENT DISCREPANCY =          -0.00     PERCENT DISCREPANCY =          -0.00






         TIME SUMMARY AT END OF TIME STEP   15 IN STRESS PERIOD    7
                    SECONDS     MINUTES      HOURS       DAYS        YEARS
                    -----------------------------------------------------------
   TIME STEP LENGTH 3.14103E+05  5235.0      87.251      3.6354     9.95332E-03
 STRESS PERIOD TIME 2.62800E+06  43800.      730.00      30.417     8.32763E-02
         TOTAL TIME 1.83960E+07 3.06600E+05  5110.0      212.92     0.58293    
1
1
                            STRESS PERIOD NO.    8, LENGTH =   2628000.    
                            -----------------------------------------------

                              NUMBER OF TIME STEPS =    15

                               MULTIPLIER FOR DELT =     1.100

                            INITIAL TIME STEP SIZE =   82713.07    

      0 WELLS

 REUSING NON-PARAMETER GHB CELLS FROM LAST STRESS PERIOD

      2 GHB CELLS

 REUSING STREAM SEGMENT DATA FROM LAST STRESS PERIOD



            AREAL INFILTRATION RATE
 READING ON UNIT   19 WITH FORMAT: (10F4.0)            

            1           2           3           4           5           6           7           8           9          10
 ........................................................................................................................
   1   5.0000E-09  1.0000E-08   0.000       0.000       0.000       0.000       0.000       0.000       0.000       0.000    
   2   1.0000E-08  5.0000E-09  1.0000E-08   0.000       0.000      4.0000E-08  4.0000E-08  2.5000E-08   0.000       0.000    
   3    0.000      2.5000E-08  5.0000E-09  5.0000E-09  4.0000E-08  4.0000E-08  2.5000E-08  2.5000E-08   0.000       0.000    
   4   4.0000E-08  2.5000E-08  5.0000E-09  5.0000E-09  5.0000E-09  5.0000E-09  5.0000E-09  5.0000E-09  1.0000E-08   0.000    
   5   4.0000E-08  2.5000E-08  5.0000E-09  5.0000E-09  5.0000E-09  5.0000E-09  5.0000E-09  5.0000E-09  5.0000E-09  5.0000E-09
   6   4.0000E-08  2.5000E-08  2.5000E-08  1.0000E-08  1.0000E-08  5.0000E-09  5.0000E-09  5.0000E-09  5.0000E-09  2.5000E-08
   7   4.0000E-08  2.5000E-08  2.5000E-08  1.0000E-08  1.0000E-08  5.0000E-09  5.0000E-09  1.0000E-08  1.0000E-08   0.000    
   8    0.000      2.5000E-08  2.5000E-08  1.0000E-08  1.0000E-08  5.0000E-09  5.0000E-09  1.0000E-08  2.5000E-08   0.000    
   9    0.000      2.5000E-08  2.5000E-08  1.0000E-08  1.0000E-08  5.0000E-09  5.0000E-09  1.0000E-08  2.5000E-08   0.000    
  10    0.000      2.5000E-08  2.5000E-08  1.0000E-08  1.0000E-08  5.0000E-09  5.0000E-09  1.0000E-08  2.5000E-08  4.0000E-08
  11    0.000      5.0000E-09  5.0000E-09  5.0000E-09  5.0000E-09  5.0000E-09  5.0000E-09  1.0000E-08  2.5000E-08   0.000    
  12   5.0000E-09  5.0000E-09  5.0000E-09  5.0000E-09  5.0000E-09  5.0000E-09  5.0000E-09  5.0000E-09  1.0000E-08   0.000    
  13   5.0000E-09  5.0000E-09  1.0000E-08  1.0000E-08  1.0000E-08  1.0000E-08  1.0000E-08  5.0000E-09  5.0000E-09   0.000    
  14    0.000      1.0000E-08  2.5000E-08  2.5000E-08  2.5000E-08  2.5000E-08  2.5000E-08  1.0000E-08  5.0000E-09   0.000    
  15    0.000       0.000      4.0000E-08  4.0000E-08  4.0000E-08  4.0000E-08   0.000       0.000       0.000       0.000    

USING ET RATE FROM PREVIOUS STRESS PERIOD. CURRENT PERIOD IS:       8

 USING ET EXTINCTION DEPTH FROM PREVIOUS STRESS PERIOD. CURRENT PERIOD IS:       8

 USING EXTINCTION WATER CONTENT FROM PREVIOUS STRESS PERIOD. CURRENT PERIOD IS:       8
 
 SOLVING FOR HEAD 
                                                   Max.-Head-Change                         Max.-Flux-Residual
  Residual-Control   Outer-Iter.   Inner-Iter.     Column Row Layer    Maximum-Head-Change  Column Row Layer    Maximum-Flux-Residual          L2-NORM 
          0                 1           2             4    8     1       0.3248132349E-01       4    8    1         0.1795463461E+01      0.5532476059E+01
          0                 2           2             4    8     1      -0.3218609245E-02       4    8    1        -0.1795467123E+00      0.5532478656E+00
          0                 3           2             4    8     1       0.2870438254E-03       4    8    1         0.1615920251E-01      0.4979231152E-01
          0                 4           1             4    8     1      -0.2278358160E-04       4    8    1        -0.1294352467E-02      0.3988365184E-02

    ------------------------------------------------
       NWT REQUIRED            4 OUTER ITERATIONS 
       AND A TOTAL OF          7 INNER ITERATIONS.
    ------------------------------------------------

 NO OUTPUT CONTROL FOR STRESS PERIOD    8   TIME STEP    1
 
 SOLVING FOR HEAD 
                                                   Max.-Head-Change                         Max.-Flux-Residual
  Residual-Control   Outer-Iter.   Inner-Iter.     Column Row Layer    Maximum-Head-Change  Column Row Layer    Maximum-Flux-Residual          L2-NORM 
          0                 1           2             4    8     1       0.3555620421E-01       4    8    1         0.1787699271E+01      0.5463985195E+01
          0                 2           2             4    8     1      -0.3523303523E-02       4    8    1        -0.1787703571E+00      0.5463988180E+00
          0                 3           2             4    8     1       0.3142172322E-03       4    8    1         0.1608932991E-01      0.4917589678E-01
          0                 4           1             4    8     1      -0.2494042136E-04       4    8    1        -0.1288755695E-02      0.3938990364E-02

    ------------------------------------------------
       NWT REQUIRED            4 OUTER ITERATIONS 
       AND A TOTAL OF          7 INNER ITERATIONS.
    ------------------------------------------------

 NO OUTPUT CONTROL FOR STRESS PERIOD    8   TIME STEP    2
 
 SOLVING FOR HEAD 
                                                   Max.-Head-Change                         Max.-Flux-Residual
  Residual-Control   Outer-Iter.   Inner-Iter.     Column Row Layer    Maximum-Head-Change  Column Row Layer    Maximum-Flux-Residual          L2-NORM 
          0                 1           2             4    8     1       0.3889889506E-01       4    8    1         0.1779027050E+01      0.5387550745E+01
          0                 2           2             4    8     1      -0.3854535895E-02       4    8    1        -0.1779032152E+00      0.5387554513E+00
          0                 3           2             4    8     1       0.3437573690E-03       4    8    1         0.1601128634E-01      0.4848799294E-01
          0                 4           1             4    8     1      -0.2728511644E-04       4    8    1        -0.1282504396E-02      0.3883889258E-02

    ------------------------------------------------
       NWT REQUIRED            4 OUTER ITERATIONS 
       AND A TOTAL OF          7 INNER ITERATIONS.
    ------------------------------------------------

 NO OUTPUT CONTROL FOR STRESS PERIOD    8   TIME STEP    3
 
 SOLVING FOR HEAD 
                                                   Max.-Head-Change                         Max.-Flux-Residual
  Residual-Control   Outer-Iter.   Inner-Iter.     Column Row Layer    Maximum-Head-Change  Column Row Layer    Maximum-Flux-Residual          L2-NORM 
          0                 1           2             4    8     1       0.4252727327E-01       4    8    1         0.1769347650E+01      0.5306935260E+01
          0                 2           2             4    8     1      -0.4214078041E-02       4    8    1        -0.1769353762E+00      0.5306940125E+00
          0                 3           2             4    8     1       0.3758222368E-03       4    8    1         0.1592417981E-01      0.4776246227E-01
          0                 4           1             4    8     1      -0.2983020720E-04       4    8    1        -0.1275527175E-02      0.3825774225E-02

    ------------------------------------------------
       NWT REQUIRED            4 OUTER ITERATIONS 
       AND A TOTAL OF          7 INNER ITERATIONS.
    ------------------------------------------------

 NO OUTPUT CONTROL FOR STRESS PERIOD    8   TIME STEP    4
 
 SOLVING FOR HEAD 
                                                   Max.-Head-Change                         Max.-Flux-Residual
  Residual-Control   Outer-Iter.   Inner-Iter.     Column Row Layer    Maximum-Head-Change  Column Row Layer    Maximum-Flux-Residual          L2-NORM 
          0                 1           2             4    8     1       0.4645850660E-01       4    8    1         0.1758529856E+01      0.5222136875E+01
          0                 2           2             4    8     1      -0.4603631422E-02       4    8    1        -0.1758537247E+00      0.5222143232E+00
          0                 3           2             4    8     1       0.4105635744E-03       4    8    1         0.1582682993E-01      0.4699928869E-01
          0                 4           1             4    8     1      -0.3258773790E-04       4    8    1        -0.1267729457E-02      0.3764644030E-02

    ------------------------------------------------
       NWT REQUIRED            4 OUTER ITERATIONS 
       AND A TOTAL OF          7 INNER ITERATIONS.
    ------------------------------------------------

 OUTPUT CONTROL FOR STRESS PERIOD    8   TIME STEP    5
    PRINT BUDGET
    SAVE BUDGET

  HEAD DEP BOUNDS   PERIOD    8   STEP   5
 BOUNDARY      1   LAYER   1   ROW    13   COL     1   RATE    0.760959    
 BOUNDARY      2   LAYER   1   ROW    14   COL     9   RATE     2.37096    



 STREAM LISTING     PERIOD      8   STEP        5

 LAYER ROW COL. STREAM  RCH.  FLOW INTO     FLOW TO   FLOW OUT OF   OVRLND.     DIRECT     STREAM       STREAM     STREAM     STREAM   STREAMBED  STREAMBED
                SEG.NO.  NO.  STRM. RCH.    AQUIFER    STRM. RCH.    RUNOFF     PRECIP       ET          HEAD       DEPTH      WIDTH   CONDCTNC.   GRADIENT

   1    1    1     1     1    2.5000E+01  2.4515E-09   2.5000E+01  0.000E+00  0.000E+00  0.000E+00  1.09423E+03  1.178E+00  1.304E+01  5.867E-10  1.393E+00
   1    2    2     1     2    2.5000E+01  3.8085E-09   2.5000E+01  0.000E+00  0.000E+00  0.000E+00  1.08924E+03  1.177E+00  1.302E+01  9.117E-10  1.392E+00
   1    3    3     1     3    2.5000E+01  3.2661E-09   2.5000E+01  0.000E+00  0.000E+00  0.000E+00  1.08360E+03  1.178E+00  1.303E+01  7.818E-10  1.393E+00
   1    3    4     1     4    2.5000E+01  3.0219E-09   2.5000E+01  0.000E+00  0.000E+00  0.000E+00  1.07859E+03  1.178E+00  1.303E+01  7.233E-10  1.393E+00
   1    4    5     2     1    1.5000E+01  3.0290E-01   1.4697E+01  0.000E+00  0.000E+00  0.000E+00  1.07282E+03  8.834E-01  1.200E+01  7.800E-02  1.294E+00
   1    5    6     2     2    1.4697E+01  2.3243E-01   1.4465E+01  0.000E+00  0.000E+00  0.000E+00  1.06738E+03  8.738E-01  1.200E+01  6.000E-02  1.291E+00
   1    6    6     2     3    1.4465E+01  2.3193E-01   1.4233E+01  0.000E+00  0.000E+00  0.000E+00  1.06266E+03  8.654E-01  1.200E+01  6.000E-02  1.288E+00
   1    7    6     2     4    1.4233E+01  2.3142E-01   1.4001E+01  0.000E+00  0.000E+00  0.000E+00  1.05793E+03  8.570E-01  1.200E+01  6.000E-02  1.286E+00
   1    8    6     2     5    1.4001E+01  2.3091E-01   1.3770E+01  0.000E+00  0.000E+00  0.000E+00  1.05321E+03  8.486E-01  1.200E+01  6.000E-02  1.283E+00
   1    3    5     3     1    1.0000E+01  2.8252E-01   9.7175E+00  0.000E+00  0.000E+00  0.000E+00  1.07555E+03  1.909E+00  9.636E+00  7.227E-02  1.955E+00
   1    3    6     3     2    9.7175E+00  2.4905E-01   9.4684E+00  0.000E+00  0.000E+00  0.000E+00  1.07264E+03  1.727E+00  8.909E+00  6.682E-02  1.864E+00
   1    3    7     3     3    9.4684E+00  1.9718E-01   9.2712E+00  0.000E+00  0.000E+00  0.000E+00  1.06987E+03  1.555E+00  8.218E+00  5.547E-02  1.777E+00
   1    4    8     3     4    9.2712E+00  2.2567E-01   9.0456E+00  0.000E+00  0.000E+00  0.000E+00  1.06682E+03  1.364E+00  7.455E+00  6.709E-02  1.682E+00
   1    5    8     3     5    9.0456E+00  1.5790E-01   8.8877E+00  0.000E+00  0.000E+00  0.000E+00  1.06362E+03  1.164E+00  6.655E+00  4.991E-02  1.582E+00
   1    6    8     3     6    8.8877E+00  5.5980E-02   8.8317E+00  0.000E+00  0.000E+00  0.000E+00  1.06158E+03  1.036E+00  6.145E+00  1.844E-02  1.518E+00
   1    5   10     4     1    1.0000E+01  9.0919E-02   9.9091E+00  0.000E+00  0.000E+00  0.000E+00  1.07836E+03  6.368E-01  1.000E+01  2.500E-02  1.212E+00
   1    5    9     4     2    9.9091E+00  1.8158E-01   9.7275E+00  0.000E+00  0.000E+00  0.000E+00  1.07154E+03  6.315E-01  1.000E+01  5.000E-02  1.211E+00
   1    6    8     4     3    9.7275E+00  1.2689E-01   9.6006E+00  0.000E+00  0.000E+00  0.000E+00  1.06381E+03  6.256E-01  1.000E+01  3.500E-02  1.209E+00
   1    6    8     5     1    1.8432E+01  3.3262E-09   1.8432E+01  0.000E+00  0.000E+00  0.000E+00  1.05883E+03  8.293E-01  2.172E+01  8.686E-10  1.276E+00
   1    7    7     5     2    1.8432E+01  4.1514E-09   1.8432E+01  0.000E+00  0.000E+00  0.000E+00  1.05433E+03  8.286E-01  2.169E+01  1.084E-09  1.276E+00
   1    8    7     5     3    1.8432E+01  2.9126E-09   1.8432E+01  0.000E+00  0.000E+00  0.000E+00  1.05008E+03  8.296E-01  2.173E+01  7.606E-10  1.277E+00
   1    8    6     5     4    1.8432E+01  2.0836E-09   1.8432E+01  0.000E+00  0.000E+00  0.000E+00  1.04708E+03  8.303E-01  2.176E+01  5.440E-10  1.277E+00
   1    9    6     6     1    3.2203E+01  2.6507E-01   3.1938E+01  0.000E+00  0.000E+00  0.000E+00  1.04415E+03  1.418E+00  1.200E+01  6.000E-02  1.473E+00
   1   10    7     6     2    3.1938E+01  2.6465E-01   3.1673E+01  0.000E+00  0.000E+00  0.000E+00  1.03959E+03  1.411E+00  1.200E+01  6.000E-02  1.470E+00
   1   11    7     6     3    3.1673E+01  2.6423E-01   3.1409E+01  0.000E+00  0.000E+00  0.000E+00  1.03504E+03  1.404E+00  1.200E+01  6.000E-02  1.468E+00
   1   12    7     6     4    3.1409E+01  2.6380E-01   3.1145E+01  0.000E+00  0.000E+00  0.000E+00  1.03049E+03  1.397E+00  1.200E+01  6.000E-02  1.466E+00
   1   13    7     6     5    3.1145E+01  1.0540E-01   3.1040E+01  0.000E+00  0.000E+00  0.000E+00  1.02730E+03  1.392E+00  1.200E+01  2.400E-02  1.464E+00
   1   14    9     7     1    1.5000E+02  2.9539E-14   1.5000E+02  0.000E+00  0.000E+00  0.000E+00  1.03986E+03  2.283E+00  5.528E+01  5.591E-15  1.761E+00
   1   13    8     7     2    1.5000E+02  3.2486E-13   1.5000E+02  0.000E+00  0.000E+00  0.000E+00  1.03478E+03  2.283E+00  5.527E+01  6.150E-14  1.761E+00
   1   13    7     7     3    1.5000E+02  2.9539E-14   1.5000E+02  0.000E+00  0.000E+00  0.000E+00  1.02970E+03  2.283E+00  5.528E+01  5.591E-15  1.761E+00
   1   13    6     8     1    1.8104E+02  0.0000E+00   1.8104E+02  0.000E+00  0.000E+00  0.000E+00  1.02490E+03  3.023E+00  4.383E+01  0.000E+00  2.008E+00
   1   13    5     8     2    1.8104E+02  2.6787E-12   1.8104E+02  0.000E+00  0.000E+00  0.000E+00  1.01864E+03  3.014E+00  4.371E+01  4.454E-13  2.005E+00
   1   13    4     8     3    1.8104E+02  2.6787E-12   1.8104E+02  0.000E+00  0.000E+00  0.000E+00  1.01239E+03  3.014E+00  4.371E+01  4.454E-13  2.005E+00
   1   13    3     8     4    1.8104E+02  2.6787E-12   1.8104E+02  0.000E+00  0.000E+00  0.000E+00  1.00614E+03  3.014E+00  4.371E+01  4.454E-13  2.005E+00
   1   13    2     8     5    1.8104E+02  2.6787E-12   1.8104E+02  0.000E+00  0.000E+00  0.000E+00  9.99889E+02  3.014E+00  4.371E+01  4.454E-13  2.005E+00
   1   13    1     8     6    1.8104E+02  1.6099E-08   1.8104E+02  0.000E+00  0.000E+00  0.000E+00  9.94893E+02  3.018E+00  4.376E+01  2.675E-09  2.006E+00



 UBDSV3 SAVING "     NETRECHARGE" ON UNIT 100 AT TIME STEP  5, STRESS PERIOD   8
 UBDSV3 SAVING "    NETDISCHARGE" ON UNIT 101 AT TIME STEP  5, STRESS PERIOD   8
 UBDSV3 SAVING "           GW ET" ON UNIT  61 AT TIME STEP  5, STRESS PERIOD   8
 UBDSV3 SAVING "    UZF RECHARGE" ON UNIT  61 AT TIME STEP  5, STRESS PERIOD   8
 UBDSV3 SAVING " SURFACE LEAKAGE" ON UNIT  61 AT TIME STEP  5, STRESS PERIOD   8
 UBDSV3 SAVING "       HORT+DUNN" ON UNIT  61 AT TIME STEP  5, STRESS PERIOD   8
 UBDSV3 SAVING "  STORAGE CHANGE" ON UNIT  61 AT TIME STEP  5, STRESS PERIOD   8


UNSATURATED ZONE PACKAGE VOLUMETRIC BUDGET FOR  TIME STEP     5 STRESS PERIOD    8
  ------------------------------------------------------------------------------



     CUMULATIVE VOLUMES      L**3       RATES FOR THIS TIME STEP      L**3/T
     ------------------                 ------------------------

           IN:                                      IN:
           ---                                      ---
        INFILTRATION =    54812812.6318          INFILTRATION =           2.9000

          OUT:                                     OUT:
          ----                                     ----
              UZF ET =    14594196.8081                UZF ET =           1.1723
        UZF RECHARGE =     7621246.6355          UZF RECHARGE =       0.0000E+00

            IN - OUT =    32597369.1882              IN - OUT =           1.7277

          STORAGE:                                 STORAGE:
          --------                                 --------
      STORAGE CHANGE =    32597369.1103        STORAGE CHANGE =           1.7277

 PERCENT DISCREPANCY IS DIFFERENCE BETWEEN IN-OUT MINUS CHANGE IN STORAGE
 DIVIDED BY THE AVERAGE OF IN AND OUT TIMES 100

 PERCENT DISCREPANCY =           0.00     PERCENT DISCREPANCY =           0.00






1
  VOLUMETRIC BUDGET FOR ENTIRE MODEL AT END OF TIME STEP    5, STRESS PERIOD   8
  ------------------------------------------------------------------------------

     CUMULATIVE VOLUMES      L**3       RATES FOR THIS TIME STEP      L**3/T
     ------------------                 ------------------------

           IN:                                      IN:
           ---                                      ---
             STORAGE =   390006944.0000               STORAGE =           8.7208
       CONSTANT HEAD =           0.0000         CONSTANT HEAD =           0.0000
               WELLS =           0.0000                 WELLS =           0.0000
     HEAD DEP BOUNDS =    59127920.0000       HEAD DEP BOUNDS =           3.1319
      STREAM LEAKAGE =    75004592.0000        STREAM LEAKAGE =           3.9604
        UZF RECHARGE =     7621252.0000          UZF RECHARGE =           0.0000
               GW ET =           0.0000                 GW ET =           0.0000
     SURFACE LEAKAGE =           0.0000       SURFACE LEAKAGE =           0.0000

            TOTAL IN =   531760704.0000              TOTAL IN =          15.8131

          OUT:                                     OUT:
          ----                                     ----
             STORAGE =    58734436.0000               STORAGE =          15.8127
       CONSTANT HEAD =           0.0000         CONSTANT HEAD =           0.0000
               WELLS =   473040000.0000                 WELLS =           0.0000
     HEAD DEP BOUNDS =           0.0000       HEAD DEP BOUNDS =           0.0000
      STREAM LEAKAGE =           0.0000        STREAM LEAKAGE =           0.0000
        UZF RECHARGE =           0.0000          UZF RECHARGE =           0.0000
               GW ET =           0.0000                 GW ET =           0.0000
     SURFACE LEAKAGE =           0.0000       SURFACE LEAKAGE =           0.0000

           TOTAL OUT =   531774432.0000             TOTAL OUT =          15.8127

            IN - OUT =      -13728.0000              IN - OUT =       3.6335E-04

 PERCENT DISCREPANCY =          -0.00     PERCENT DISCREPANCY =           0.00






         TIME SUMMARY AT END OF TIME STEP    5 IN STRESS PERIOD    8
                    SECONDS     MINUTES      HOURS       DAYS        YEARS
                    -----------------------------------------------------------
   TIME STEP LENGTH 1.21100E+05  2018.3      33.639      1.4016     3.83743E-03
 STRESS PERIOD TIME 5.04972E+05  8416.2      140.27      5.8446     1.60016E-02
         TOTAL TIME 1.89010E+07 3.15016E+05  5250.3      218.76     0.59894    
1
 
 SOLVING FOR HEAD 
                                                   Max.-Head-Change                         Max.-Flux-Residual
  Residual-Control   Outer-Iter.   Inner-Iter.     Column Row Layer    Maximum-Head-Change  Column Row Layer    Maximum-Flux-Residual          L2-NORM 
          0                 1           2             4    8     1       0.5070937881E-01       4    8    1         0.1746446572E+01      0.5133182649E+01
          0                 2           2             4    8     1      -0.5024859562E-02       4    8    1        -0.1746455584E+00      0.5133190984E+00
          0                 3           2             4    8     1       0.4481297337E-03       4    8    1         0.1571809336E-01      0.4619871640E-01
          0                 4           1             4    8     1      -0.3556948353E-04       4    8    1        -0.1259019658E-02      0.3700518201E-02

    ------------------------------------------------
       NWT REQUIRED            4 OUTER ITERATIONS 
       AND A TOTAL OF          7 INNER ITERATIONS.
    ------------------------------------------------

 NO OUTPUT CONTROL FOR STRESS PERIOD    8   TIME STEP    6
 
 SOLVING FOR HEAD 
                                                   Max.-Head-Change                         Max.-Flux-Residual
  Residual-Control   Outer-Iter.   Inner-Iter.     Column Row Layer    Maximum-Head-Change  Column Row Layer    Maximum-Flux-Residual          L2-NORM 
          0                 1           2             4    8     1       0.5529512404E-01       4    8    1         0.1732947822E+01      0.5040118694E+01
          0                 2           2             4    8     1      -0.5479272574E-02       4    8    1        -0.1732958884E+00      0.5040129591E+00
          0                 3           2             4    8     1       0.4886553862E-03       4    8    1         0.1559662103E-01      0.4536116125E-01
          0                 4           1             4    8     1      -0.3878613457E-04       4    8    1        -0.1249289745E-02      0.3633430021E-02

    ------------------------------------------------
       NWT REQUIRED            4 OUTER ITERATIONS 
       AND A TOTAL OF          7 INNER ITERATIONS.
    ------------------------------------------------

 NO OUTPUT CONTROL FOR STRESS PERIOD    8   TIME STEP    7
 
 SOLVING FOR HEAD 
                                                   Max.-Head-Change                         Max.-Flux-Residual
  Residual-Control   Outer-Iter.   Inner-Iter.     Column Row Layer    Maximum-Head-Change  Column Row Layer    Maximum-Flux-Residual          L2-NORM 
          0                 1           2             4    8     1       0.6022911273E-01       4    8    1         0.1717876546E+01      0.4943028509E+01
          0                 2           2             4    8     1      -0.5968196097E-02       4    8    1        -0.1717890198E+00      0.4943042657E+00
          0                 3           2             4    8     1       0.5322587475E-03       4    8    1         0.1546100031E-01      0.4448737555E-01
          0                 4           1             4    8     1      -0.4224707256E-04       4    8    1        -0.1238426538E-02      0.3563439797E-02

    ------------------------------------------------
       NWT REQUIRED            4 OUTER ITERATIONS 
       AND A TOTAL OF          7 INNER ITERATIONS.
    ------------------------------------------------

 NO OUTPUT CONTROL FOR STRESS PERIOD    8   TIME STEP    8
 
 SOLVING FOR HEAD 
                                                   Max.-Head-Change                         Max.-Flux-Residual
  Residual-Control   Outer-Iter.   Inner-Iter.     Column Row Layer    Maximum-Head-Change  Column Row Layer    Maximum-Flux-Residual          L2-NORM 
          0                 1           2             4    8     1       0.6552162941E-01       4    8    1         0.1701055980E+01      0.4842000304E+01
          0                 2           2             4    8     1      -0.6492650242E-02       4    8    1        -0.1701072890E+00      0.4842018503E+00
          0                 3           2             4    8     1       0.5790307840E-03       4    8    1         0.1530964131E-01      0.4357815408E-01
          0                 4           1             4    8     1      -0.4595951893E-04       4    8    1        -0.1226302704E-02      0.3490611170E-02

    ------------------------------------------------
       NWT REQUIRED            4 OUTER ITERATIONS 
       AND A TOTAL OF          7 INNER ITERATIONS.
    ------------------------------------------------

 NO OUTPUT CONTROL FOR STRESS PERIOD    8   TIME STEP    9
 
 SOLVING FOR HEAD 
                                                   Max.-Head-Change                         Max.-Flux-Residual
  Residual-Control   Outer-Iter.   Inner-Iter.     Column Row Layer    Maximum-Head-Change  Column Row Layer    Maximum-Flux-Residual          L2-NORM 
          0                 1           2             4    8     1       0.7117929026E-01       4    8    1         0.1682303488E+01      0.4737157865E+01
          0                 2           2             4    8     1      -0.7053291941E-02       4    8    1        -0.1682324476E+00      0.4737181020E+00
          0                 3           2             4    8     1       0.6290300694E-03       4    8    1         0.1514090155E-01      0.4263461173E-01
          0                 4           1             4    8     1      -0.4992812312E-04       4    8    1        -0.1212786689E-02      0.3415033443E-02

    ------------------------------------------------
       NWT REQUIRED            4 OUTER ITERATIONS 
       AND A TOTAL OF          7 INNER ITERATIONS.
    ------------------------------------------------

 OUTPUT CONTROL FOR STRESS PERIOD    8   TIME STEP   10
    PRINT BUDGET
    SAVE BUDGET

  HEAD DEP BOUNDS   PERIOD    8   STEP  10
 BOUNDARY      1   LAYER   1   ROW    13   COL     1   RATE    0.761135    
 BOUNDARY      2   LAYER   1   ROW    14   COL     9   RATE     2.37112    



 STREAM LISTING     PERIOD      8   STEP       10

 LAYER ROW COL. STREAM  RCH.  FLOW INTO     FLOW TO   FLOW OUT OF   OVRLND.     DIRECT     STREAM       STREAM     STREAM     STREAM   STREAMBED  STREAMBED
                SEG.NO.  NO.  STRM. RCH.    AQUIFER    STRM. RCH.    RUNOFF     PRECIP       ET          HEAD       DEPTH      WIDTH   CONDCTNC.   GRADIENT

   1    1    1     1     1    2.5000E+01  2.4515E-09   2.5000E+01  0.000E+00  0.000E+00  0.000E+00  1.09423E+03  1.178E+00  1.304E+01  5.867E-10  1.393E+00
   1    2    2     1     2    2.5000E+01  3.8085E-09   2.5000E+01  0.000E+00  0.000E+00  0.000E+00  1.08924E+03  1.177E+00  1.302E+01  9.117E-10  1.392E+00
   1    3    3     1     3    2.5000E+01  3.2661E-09   2.5000E+01  0.000E+00  0.000E+00  0.000E+00  1.08360E+03  1.178E+00  1.303E+01  7.818E-10  1.393E+00
   1    3    4     1     4    2.5000E+01  3.0219E-09   2.5000E+01  0.000E+00  0.000E+00  0.000E+00  1.07859E+03  1.178E+00  1.303E+01  7.233E-10  1.393E+00
   1    4    5     2     1    1.5000E+01  3.0290E-01   1.4697E+01  0.000E+00  0.000E+00  0.000E+00  1.07282E+03  8.834E-01  1.200E+01  7.800E-02  1.294E+00
   1    5    6     2     2    1.4697E+01  2.3243E-01   1.4465E+01  0.000E+00  0.000E+00  0.000E+00  1.06738E+03  8.738E-01  1.200E+01  6.000E-02  1.291E+00
   1    6    6     2     3    1.4465E+01  2.3193E-01   1.4233E+01  0.000E+00  0.000E+00  0.000E+00  1.06266E+03  8.654E-01  1.200E+01  6.000E-02  1.288E+00
   1    7    6     2     4    1.4233E+01  2.3142E-01   1.4001E+01  0.000E+00  0.000E+00  0.000E+00  1.05793E+03  8.570E-01  1.200E+01  6.000E-02  1.286E+00
   1    8    6     2     5    1.4001E+01  2.3091E-01   1.3770E+01  0.000E+00  0.000E+00  0.000E+00  1.05321E+03  8.486E-01  1.200E+01  6.000E-02  1.283E+00
   1    3    5     3     1    1.0000E+01  2.8252E-01   9.7175E+00  0.000E+00  0.000E+00  0.000E+00  1.07555E+03  1.909E+00  9.636E+00  7.227E-02  1.955E+00
   1    3    6     3     2    9.7175E+00  2.4905E-01   9.4684E+00  0.000E+00  0.000E+00  0.000E+00  1.07264E+03  1.727E+00  8.909E+00  6.682E-02  1.864E+00
   1    3    7     3     3    9.4684E+00  1.9718E-01   9.2712E+00  0.000E+00  0.000E+00  0.000E+00  1.06987E+03  1.555E+00  8.218E+00  5.547E-02  1.777E+00
   1    4    8     3     4    9.2712E+00  2.2567E-01   9.0456E+00  0.000E+00  0.000E+00  0.000E+00  1.06682E+03  1.364E+00  7.455E+00  6.709E-02  1.682E+00
   1    5    8     3     5    9.0456E+00  1.5790E-01   8.8877E+00  0.000E+00  0.000E+00  0.000E+00  1.06362E+03  1.164E+00  6.655E+00  4.991E-02  1.582E+00
   1    6    8     3     6    8.8877E+00  5.5980E-02   8.8317E+00  0.000E+00  0.000E+00  0.000E+00  1.06158E+03  1.036E+00  6.145E+00  1.844E-02  1.518E+00
   1    5   10     4     1    1.0000E+01  9.0919E-02   9.9091E+00  0.000E+00  0.000E+00  0.000E+00  1.07836E+03  6.368E-01  1.000E+01  2.500E-02  1.212E+00
   1    5    9     4     2    9.9091E+00  1.8158E-01   9.7275E+00  0.000E+00  0.000E+00  0.000E+00  1.07154E+03  6.315E-01  1.000E+01  5.000E-02  1.211E+00
   1    6    8     4     3    9.7275E+00  1.2689E-01   9.6006E+00  0.000E+00  0.000E+00  0.000E+00  1.06381E+03  6.256E-01  1.000E+01  3.500E-02  1.209E+00
   1    6    8     5     1    1.8432E+01  3.3262E-09   1.8432E+01  0.000E+00  0.000E+00  0.000E+00  1.05883E+03  8.293E-01  2.172E+01  8.686E-10  1.276E+00
   1    7    7     5     2    1.8432E+01  4.1514E-09   1.8432E+01  0.000E+00  0.000E+00  0.000E+00  1.05433E+03  8.286E-01  2.169E+01  1.084E-09  1.276E+00
   1    8    7     5     3    1.8432E+01  2.9126E-09   1.8432E+01  0.000E+00  0.000E+00  0.000E+00  1.05008E+03  8.296E-01  2.173E+01  7.606E-10  1.277E+00
   1    8    6     5     4    1.8432E+01  2.0836E-09   1.8432E+01  0.000E+00  0.000E+00  0.000E+00  1.04708E+03  8.303E-01  2.176E+01  5.440E-10  1.277E+00
   1    9    6     6     1    3.2203E+01  2.6507E-01   3.1938E+01  0.000E+00  0.000E+00  0.000E+00  1.04415E+03  1.418E+00  1.200E+01  6.000E-02  1.473E+00
   1   10    7     6     2    3.1938E+01  2.6465E-01   3.1673E+01  0.000E+00  0.000E+00  0.000E+00  1.03959E+03  1.411E+00  1.200E+01  6.000E-02  1.470E+00
   1   11    7     6     3    3.1673E+01  2.6423E-01   3.1409E+01  0.000E+00  0.000E+00  0.000E+00  1.03504E+03  1.404E+00  1.200E+01  6.000E-02  1.468E+00
   1   12    7     6     4    3.1409E+01  2.6380E-01   3.1145E+01  0.000E+00  0.000E+00  0.000E+00  1.03049E+03  1.397E+00  1.200E+01  6.000E-02  1.466E+00
   1   13    7     6     5    3.1145E+01  1.0540E-01   3.1040E+01  0.000E+00  0.000E+00  0.000E+00  1.02730E+03  1.392E+00  1.200E+01  2.400E-02  1.464E+00
   1   14    9     7     1    1.5000E+02  2.9539E-14   1.5000E+02  0.000E+00  0.000E+00  0.000E+00  1.03986E+03  2.283E+00  5.528E+01  5.591E-15  1.761E+00
   1   13    8     7     2    1.5000E+02  3.2486E-13   1.5000E+02  0.000E+00  0.000E+00  0.000E+00  1.03478E+03  2.283E+00  5.527E+01  6.150E-14  1.761E+00
   1   13    7     7     3    1.5000E+02  2.9539E-14   1.5000E+02  0.000E+00  0.000E+00  0.000E+00  1.02970E+03  2.283E+00  5.528E+01  5.591E-15  1.761E+00
   1   13    6     8     1    1.8104E+02  0.0000E+00   1.8104E+02  0.000E+00  0.000E+00  0.000E+00  1.02490E+03  3.023E+00  4.383E+01  0.000E+00  2.008E+00
   1   13    5     8     2    1.8104E+02  2.6787E-12   1.8104E+02  0.000E+00  0.000E+00  0.000E+00  1.01864E+03  3.014E+00  4.371E+01  4.454E-13  2.005E+00
   1   13    4     8     3    1.8104E+02  2.6787E-12   1.8104E+02  0.000E+00  0.000E+00  0.000E+00  1.01239E+03  3.014E+00  4.371E+01  4.454E-13  2.005E+00
   1   13    3     8     4    1.8104E+02  2.6787E-12   1.8104E+02  0.000E+00  0.000E+00  0.000E+00  1.00614E+03  3.014E+00  4.371E+01  4.454E-13  2.005E+00
   1   13    2     8     5    1.8104E+02  2.6787E-12   1.8104E+02  0.000E+00  0.000E+00  0.000E+00  9.99889E+02  3.014E+00  4.371E+01  4.454E-13  2.005E+00
   1   13    1     8     6    1.8104E+02  1.6099E-08   1.8104E+02  0.000E+00  0.000E+00  0.000E+00  9.94893E+02  3.018E+00  4.376E+01  2.675E-09  2.006E+00



 UBDSV3 SAVING "     NETRECHARGE" ON UNIT 100 AT TIME STEP 10, STRESS PERIOD   8
 UBDSV3 SAVING "    NETDISCHARGE" ON UNIT 101 AT TIME STEP 10, STRESS PERIOD   8
 UBDSV3 SAVING "           GW ET" ON UNIT  61 AT TIME STEP 10, STRESS PERIOD   8
 UBDSV3 SAVING "    UZF RECHARGE" ON UNIT  61 AT TIME STEP 10, STRESS PERIOD   8
 UBDSV3 SAVING " SURFACE LEAKAGE" ON UNIT  61 AT TIME STEP 10, STRESS PERIOD   8
 UBDSV3 SAVING "       HORT+DUNN" ON UNIT  61 AT TIME STEP 10, STRESS PERIOD   8
 UBDSV3 SAVING "  STORAGE CHANGE" ON UNIT  61 AT TIME STEP 10, STRESS PERIOD   8


UNSATURATED ZONE PACKAGE VOLUMETRIC BUDGET FOR  TIME STEP    10 STRESS PERIOD    8
  ------------------------------------------------------------------------------



     CUMULATIVE VOLUMES      L**3       RATES FOR THIS TIME STEP      L**3/T
     ------------------                 ------------------------

           IN:                                      IN:
           ---                                      ---
        INFILTRATION =    57171271.8994          INFILTRATION =           2.9000

          OUT:                                     OUT:
          ----                                     ----
              UZF ET =    15545801.0928                UZF ET =           1.1603
        UZF RECHARGE =     7621246.6355          UZF RECHARGE =       0.0000E+00

            IN - OUT =    34004224.1712              IN - OUT =           1.7397

          STORAGE:                                 STORAGE:
          --------                                 --------
      STORAGE CHANGE =    34004224.0458        STORAGE CHANGE =           1.7397

 PERCENT DISCREPANCY IS DIFFERENCE BETWEEN IN-OUT MINUS CHANGE IN STORAGE
 DIVIDED BY THE AVERAGE OF IN AND OUT TIMES 100

 PERCENT DISCREPANCY =           0.00     PERCENT DISCREPANCY =           0.00






1
  VOLUMETRIC BUDGET FOR ENTIRE MODEL AT END OF TIME STEP   10, STRESS PERIOD   8
  ------------------------------------------------------------------------------

     CUMULATIVE VOLUMES      L**3       RATES FOR THIS TIME STEP      L**3/T
     ------------------                 ------------------------

           IN:                                      IN:
           ---                                      ---
             STORAGE =   396572032.0000               STORAGE =           7.8043
       CONSTANT HEAD =           0.0000         CONSTANT HEAD =           0.0000
               WELLS =           0.0000                 WELLS =           0.0000
     HEAD DEP BOUNDS =    61675152.0000       HEAD DEP BOUNDS =           3.1323
      STREAM LEAKAGE =    78225456.0000        STREAM LEAKAGE =           3.9604
        UZF RECHARGE =     7621252.0000          UZF RECHARGE =           0.0000
               GW ET =           0.0000                 GW ET =           0.0000
     SURFACE LEAKAGE =           0.0000       SURFACE LEAKAGE =           0.0000

            TOTAL IN =   544093888.0000              TOTAL IN =          14.8970

          OUT:                                     OUT:
          ----                                     ----
             STORAGE =    71067288.0000               STORAGE =          14.8966
       CONSTANT HEAD =           0.0000         CONSTANT HEAD =           0.0000
               WELLS =   473040000.0000                 WELLS =           0.0000
     HEAD DEP BOUNDS =           0.0000       HEAD DEP BOUNDS =           0.0000
      STREAM LEAKAGE =           0.0000        STREAM LEAKAGE =           0.0000
        UZF RECHARGE =           0.0000          UZF RECHARGE =           0.0000
               GW ET =           0.0000                 GW ET =           0.0000
     SURFACE LEAKAGE =           0.0000       SURFACE LEAKAGE =           0.0000

           TOTAL OUT =   544107264.0000             TOTAL OUT =          14.8966

            IN - OUT =      -13376.0000              IN - OUT =       3.6335E-04

 PERCENT DISCREPANCY =          -0.00     PERCENT DISCREPANCY =           0.00






         TIME SUMMARY AT END OF TIME STEP   10 IN STRESS PERIOD    8
                    SECONDS     MINUTES      HOURS       DAYS        YEARS
                    -----------------------------------------------------------
   TIME STEP LENGTH 1.95033E+05  3250.6      54.176      2.2573     6.18023E-03
 STRESS PERIOD TIME 1.31823E+06  21971.      366.18      15.257     4.17723E-02
         TOTAL TIME 1.97142E+07 3.28570E+05  5476.2      228.17     0.62471    
1
 
 SOLVING FOR HEAD 
                                                   Max.-Head-Change                         Max.-Flux-Residual
  Residual-Control   Outer-Iter.   Inner-Iter.     Column Row Layer    Maximum-Head-Change  Column Row Layer    Maximum-Flux-Residual          L2-NORM 
          0                 1           2             4    8     1       0.7720363154E-01       4    8    1         0.1661424261E+01      0.4628628999E+01
          0                 2           2             4    8     1      -0.7650275162E-02       4    8    1        -0.1661450321E+00      0.4628658119E+00
          0                 3           2             4    8     1       0.6822703179E-03       4    8    1         0.1495302915E-01      0.4165789965E-01
          0                 4           1             4    8     1      -0.5415397236E-04       4    8    1        -0.1197738141E-02      0.3336798836E-02

    ------------------------------------------------
       NWT REQUIRED            4 OUTER ITERATIONS 
       AND A TOTAL OF          7 INNER ITERATIONS.
    ------------------------------------------------

 NO OUTPUT CONTROL FOR STRESS PERIOD    8   TIME STEP   11
 
 SOLVING FOR HEAD 
                                                   Max.-Head-Change                         Max.-Flux-Residual
  Residual-Control   Outer-Iter.   Inner-Iter.     Column Row Layer    Maximum-Head-Change  Column Row Layer    Maximum-Flux-Residual          L2-NORM 
          0                 1           2             4    8     1       0.8359012283E-01       4    8    1         0.1638219778E+01      0.4516562233E+01
          0                 2           2             4    8     1      -0.8283153210E-02       4    8    1        -0.1638252098E+00      0.4516598417E+00
          0                 3           2             4    8     1       0.7387116704E-03       4    8    1         0.1474423898E-01      0.4064935527E-01
          0                 4           1             4    8     1      -0.5863390554E-04       4    8    1        -0.1181014100E-02      0.3256014466E-02

    ------------------------------------------------
       NWT REQUIRED            4 OUTER ITERATIONS 
       AND A TOTAL OF          7 INNER ITERATIONS.
    ------------------------------------------------

 NO OUTPUT CONTROL FOR STRESS PERIOD    8   TIME STEP   12
 
 SOLVING FOR HEAD 
                                                   Max.-Head-Change                         Max.-Flux-Residual
  Residual-Control   Outer-Iter.   Inner-Iter.     Column Row Layer    Maximum-Head-Change  Column Row Layer    Maximum-Flux-Residual          L2-NORM 
          0                 1           2             4    8     1       0.9032672502E-01       4    8    1         0.1612488810E+01      0.4401118051E+01
          0                 2           2             4    8     1      -0.8950735920E-02       4    8    1        -0.1612528785E+00      0.4401162474E+00
          0                 3           2             4    8     1       0.7982479554E-03       4    8    1         0.1451272162E-01      0.3961042357E-01
          0                 4           1             4    8     1      -0.6335949287E-04       4    8    1        -0.1162469605E-02      0.3172796081E-02

    ------------------------------------------------
       NWT REQUIRED            4 OUTER ITERATIONS 
       AND A TOTAL OF          7 INNER ITERATIONS.
    ------------------------------------------------

 NO OUTPUT CONTROL FOR STRESS PERIOD    8   TIME STEP   13
 
 SOLVING FOR HEAD 
                                                   Max.-Head-Change                         Max.-Flux-Residual
  Residual-Control   Outer-Iter.   Inner-Iter.     Column Row Layer    Maximum-Head-Change  Column Row Layer    Maximum-Flux-Residual          L2-NORM 
          0                 1           2             4    8     1       0.9739275730E-01       4    8    1         0.1584036579E+01      0.4282466247E+01
          0                 2           2             4    8     1      -0.9650977443E-02       4    8    1        -0.1584085815E+00      0.4282520136E+00
          0                 3           2             4    8     1       0.8606966863E-03       4    8    1         0.1425672576E-01      0.3854263309E-01
          0                 4           1             4    8     1      -0.6831625139E-04       4    8    1        -0.1141964406E-02      0.3087266118E-02

    ------------------------------------------------
       NWT REQUIRED            4 OUTER ITERATIONS 
       AND A TOTAL OF          7 INNER ITERATIONS.
    ------------------------------------------------

 NO OUTPUT CONTROL FOR STRESS PERIOD    8   TIME STEP   14
 
 SOLVING FOR HEAD 
                                                   Max.-Head-Change                         Max.-Flux-Residual
  Residual-Control   Outer-Iter.   Inner-Iter.     Column Row Layer    Maximum-Head-Change  Column Row Layer    Maximum-Flux-Residual          L2-NORM 
          0                 1           2             4    8     1       0.1047579143E+00       4    8    1         0.1552684631E+01      0.4160792052E+01
          0                 2           2             4    8     1      -0.1038087890E-01       4    8    1        -0.1552744936E+00      0.4160856658E+00
          0                 3           2             4    8     1       0.9257903742E-03       4    8    1         0.1397464695E-01      0.3744765114E-01
          0                 4           1             4    8     1      -0.7348294996E-04       4    8    1        -0.1119369967E-02      0.2999558121E-02

    ------------------------------------------------
       NWT REQUIRED            4 OUTER ITERATIONS 
       AND A TOTAL OF          7 INNER ITERATIONS.
    ------------------------------------------------

 OUTPUT CONTROL FOR STRESS PERIOD    8   TIME STEP   15
    PRINT BUDGET
    PRINT HEAD FOR ALL LAYERS
    SAVE HEAD FOR ALL LAYERS
    SAVE BUDGET

  HEAD DEP BOUNDS   PERIOD    8   STEP  15
 BOUNDARY      1   LAYER   1   ROW    13   COL     1   RATE    0.761427    
 BOUNDARY      2   LAYER   1   ROW    14   COL     9   RATE     2.37138    



 STREAM LISTING     PERIOD      8   STEP       15

 LAYER ROW COL. STREAM  RCH.  FLOW INTO     FLOW TO   FLOW OUT OF   OVRLND.     DIRECT     STREAM       STREAM     STREAM     STREAM   STREAMBED  STREAMBED
                SEG.NO.  NO.  STRM. RCH.    AQUIFER    STRM. RCH.    RUNOFF     PRECIP       ET          HEAD       DEPTH      WIDTH   CONDCTNC.   GRADIENT

   1    1    1     1     1    2.5000E+01  2.4515E-09   2.5000E+01  0.000E+00  0.000E+00  0.000E+00  1.09423E+03  1.178E+00  1.304E+01  5.867E-10  1.393E+00
   1    2    2     1     2    2.5000E+01  3.8085E-09   2.5000E+01  0.000E+00  0.000E+00  0.000E+00  1.08924E+03  1.177E+00  1.302E+01  9.117E-10  1.392E+00
   1    3    3     1     3    2.5000E+01  3.2661E-09   2.5000E+01  0.000E+00  0.000E+00  0.000E+00  1.08360E+03  1.178E+00  1.303E+01  7.818E-10  1.393E+00
   1    3    4     1     4    2.5000E+01  3.0219E-09   2.5000E+01  0.000E+00  0.000E+00  0.000E+00  1.07859E+03  1.178E+00  1.303E+01  7.233E-10  1.393E+00
   1    4    5     2     1    1.5000E+01  3.0290E-01   1.4697E+01  0.000E+00  0.000E+00  0.000E+00  1.07282E+03  8.834E-01  1.200E+01  7.800E-02  1.294E+00
   1    5    6     2     2    1.4697E+01  2.3243E-01   1.4465E+01  0.000E+00  0.000E+00  0.000E+00  1.06738E+03  8.738E-01  1.200E+01  6.000E-02  1.291E+00
   1    6    6     2     3    1.4465E+01  2.3193E-01   1.4233E+01  0.000E+00  0.000E+00  0.000E+00  1.06266E+03  8.654E-01  1.200E+01  6.000E-02  1.288E+00
   1    7    6     2     4    1.4233E+01  2.3142E-01   1.4001E+01  0.000E+00  0.000E+00  0.000E+00  1.05793E+03  8.570E-01  1.200E+01  6.000E-02  1.286E+00
   1    8    6     2     5    1.4001E+01  2.3091E-01   1.3770E+01  0.000E+00  0.000E+00  0.000E+00  1.05321E+03  8.486E-01  1.200E+01  6.000E-02  1.283E+00
   1    3    5     3     1    1.0000E+01  2.8252E-01   9.7175E+00  0.000E+00  0.000E+00  0.000E+00  1.07555E+03  1.909E+00  9.636E+00  7.227E-02  1.955E+00
   1    3    6     3     2    9.7175E+00  2.4905E-01   9.4684E+00  0.000E+00  0.000E+00  0.000E+00  1.07264E+03  1.727E+00  8.909E+00  6.682E-02  1.864E+00
   1    3    7     3     3    9.4684E+00  1.9718E-01   9.2712E+00  0.000E+00  0.000E+00  0.000E+00  1.06987E+03  1.555E+00  8.218E+00  5.547E-02  1.777E+00
   1    4    8     3     4    9.2712E+00  2.2567E-01   9.0456E+00  0.000E+00  0.000E+00  0.000E+00  1.06682E+03  1.364E+00  7.455E+00  6.709E-02  1.682E+00
   1    5    8     3     5    9.0456E+00  1.5790E-01   8.8877E+00  0.000E+00  0.000E+00  0.000E+00  1.06362E+03  1.164E+00  6.655E+00  4.991E-02  1.582E+00
   1    6    8     3     6    8.8877E+00  5.5980E-02   8.8317E+00  0.000E+00  0.000E+00  0.000E+00  1.06158E+03  1.036E+00  6.145E+00  1.844E-02  1.518E+00
   1    5   10     4     1    1.0000E+01  9.0919E-02   9.9091E+00  0.000E+00  0.000E+00  0.000E+00  1.07836E+03  6.368E-01  1.000E+01  2.500E-02  1.212E+00
   1    5    9     4     2    9.9091E+00  1.8158E-01   9.7275E+00  0.000E+00  0.000E+00  0.000E+00  1.07154E+03  6.315E-01  1.000E+01  5.000E-02  1.211E+00
   1    6    8     4     3    9.7275E+00  1.2689E-01   9.6006E+00  0.000E+00  0.000E+00  0.000E+00  1.06381E+03  6.256E-01  1.000E+01  3.500E-02  1.209E+00
   1    6    8     5     1    1.8432E+01  3.3262E-09   1.8432E+01  0.000E+00  0.000E+00  0.000E+00  1.05883E+03  8.293E-01  2.172E+01  8.686E-10  1.276E+00
   1    7    7     5     2    1.8432E+01  4.1514E-09   1.8432E+01  0.000E+00  0.000E+00  0.000E+00  1.05433E+03  8.286E-01  2.169E+01  1.084E-09  1.276E+00
   1    8    7     5     3    1.8432E+01  2.9126E-09   1.8432E+01  0.000E+00  0.000E+00  0.000E+00  1.05008E+03  8.296E-01  2.173E+01  7.606E-10  1.277E+00
   1    8    6     5     4    1.8432E+01  2.0836E-09   1.8432E+01  0.000E+00  0.000E+00  0.000E+00  1.04708E+03  8.303E-01  2.176E+01  5.440E-10  1.277E+00
   1    9    6     6     1    3.2203E+01  2.6507E-01   3.1938E+01  0.000E+00  0.000E+00  0.000E+00  1.04415E+03  1.418E+00  1.200E+01  6.000E-02  1.473E+00
   1   10    7     6     2    3.1938E+01  2.6465E-01   3.1673E+01  0.000E+00  0.000E+00  0.000E+00  1.03959E+03  1.411E+00  1.200E+01  6.000E-02  1.470E+00
   1   11    7     6     3    3.1673E+01  2.6423E-01   3.1409E+01  0.000E+00  0.000E+00  0.000E+00  1.03504E+03  1.404E+00  1.200E+01  6.000E-02  1.468E+00
   1   12    7     6     4    3.1409E+01  2.6380E-01   3.1145E+01  0.000E+00  0.000E+00  0.000E+00  1.03049E+03  1.397E+00  1.200E+01  6.000E-02  1.466E+00
   1   13    7     6     5    3.1145E+01  1.0540E-01   3.1040E+01  0.000E+00  0.000E+00  0.000E+00  1.02730E+03  1.392E+00  1.200E+01  2.400E-02  1.464E+00
   1   14    9     7     1    1.5000E+02  2.9539E-14   1.5000E+02  0.000E+00  0.000E+00  0.000E+00  1.03986E+03  2.283E+00  5.528E+01  5.591E-15  1.761E+00
   1   13    8     7     2    1.5000E+02  3.2486E-13   1.5000E+02  0.000E+00  0.000E+00  0.000E+00  1.03478E+03  2.283E+00  5.527E+01  6.150E-14  1.761E+00
   1   13    7     7     3    1.5000E+02  2.9539E-14   1.5000E+02  0.000E+00  0.000E+00  0.000E+00  1.02970E+03  2.283E+00  5.528E+01  5.591E-15  1.761E+00
   1   13    6     8     1    1.8104E+02  0.0000E+00   1.8104E+02  0.000E+00  0.000E+00  0.000E+00  1.02490E+03  3.023E+00  4.383E+01  0.000E+00  2.008E+00
   1   13    5     8     2    1.8104E+02  2.6787E-12   1.8104E+02  0.000E+00  0.000E+00  0.000E+00  1.01864E+03  3.014E+00  4.371E+01  4.454E-13  2.005E+00
   1   13    4     8     3    1.8104E+02  2.6787E-12   1.8104E+02  0.000E+00  0.000E+00  0.000E+00  1.01239E+03  3.014E+00  4.371E+01  4.454E-13  2.005E+00
   1   13    3     8     4    1.8104E+02  2.6787E-12   1.8104E+02  0.000E+00  0.000E+00  0.000E+00  1.00614E+03  3.014E+00  4.371E+01  4.454E-13  2.005E+00
   1   13    2     8     5    1.8104E+02  2.6787E-12   1.8104E+02  0.000E+00  0.000E+00  0.000E+00  9.99889E+02  3.014E+00  4.371E+01  4.454E-13  2.005E+00
   1   13    1     8     6    1.8104E+02  1.6099E-08   1.8104E+02  0.000E+00  0.000E+00  0.000E+00  9.94893E+02  3.018E+00  4.376E+01  2.675E-09  2.006E+00



 UBDSV3 SAVING "     NETRECHARGE" ON UNIT 100 AT TIME STEP 15, STRESS PERIOD   8
 UBDSV3 SAVING "    NETDISCHARGE" ON UNIT 101 AT TIME STEP 15, STRESS PERIOD   8
 UBDSV3 SAVING "           GW ET" ON UNIT  61 AT TIME STEP 15, STRESS PERIOD   8
 UBDSV3 SAVING "    UZF RECHARGE" ON UNIT  61 AT TIME STEP 15, STRESS PERIOD   8
 UBDSV3 SAVING " SURFACE LEAKAGE" ON UNIT  61 AT TIME STEP 15, STRESS PERIOD   8
 UBDSV3 SAVING "       HORT+DUNN" ON UNIT  61 AT TIME STEP 15, STRESS PERIOD   8
 UBDSV3 SAVING "  STORAGE CHANGE" ON UNIT  61 AT TIME STEP 15, STRESS PERIOD   8


UNSATURATED ZONE PACKAGE VOLUMETRIC BUDGET FOR  TIME STEP    15 STRESS PERIOD    8
  ------------------------------------------------------------------------------



     CUMULATIVE VOLUMES      L**3       RATES FOR THIS TIME STEP      L**3/T
     ------------------                 ------------------------

           IN:                                      IN:
           ---                                      ---
        INFILTRATION =    60969594.2510          INFILTRATION =           2.9000

          OUT:                                     OUT:
          ----                                     ----
              UZF ET =    17077222.5142                UZF ET =           1.1749
        UZF RECHARGE =     7621246.6355          UZF RECHARGE =       0.0000E+00

            IN - OUT =    36271125.1013              IN - OUT =           1.7251

          STORAGE:                                 STORAGE:
          --------                                 --------
      STORAGE CHANGE =    36271125.0085        STORAGE CHANGE =           1.7251

 PERCENT DISCREPANCY IS DIFFERENCE BETWEEN IN-OUT MINUS CHANGE IN STORAGE
 DIVIDED BY THE AVERAGE OF IN AND OUT TIMES 100

 PERCENT DISCREPANCY =           0.00     PERCENT DISCREPANCY =           0.00






1
              HEAD IN LAYER   1 AT END OF TIME STEP  15 IN STRESS PERIOD    8
  ---------------------------------------------------------------------------

           1       2       3       4       5       6       7       8       9      10
 ...................................................................................
   1  1003.33 1000.46 6999.00 6999.00 6999.00 6999.00 6999.00 6999.00 6999.00 6999.00
   2  1000.91  958.80  958.23 6999.00 6999.00  964.39  964.86  965.25 6999.00 6999.00
   3  6999.00  957.93  957.27  956.99  957.99  959.48  960.75  961.57 6999.00 6999.00
   4   959.05  957.55  956.59  956.09  956.39  956.86  958.23  960.68  961.99 6999.00
   5   958.69  956.71  955.33  954.62  955.06  956.03  956.95  958.12  959.70  964.24
   6   958.32  956.01  953.89  952.98  953.59  955.11  956.36  957.49  958.99  972.18
   7   958.09  955.61  953.04  951.95  952.73  954.48  955.91  956.98  960.76 6999.00
   8  6999.00  955.70  952.96  951.74  952.61  954.36  955.77  957.44  962.32 6999.00
   9  6999.00  956.35  953.72  952.55  953.34  954.96  956.40  958.41  963.44 6999.00
  10  6999.00  957.62  955.33  954.24  954.79  956.16  957.58  959.68  963.73  967.31
  11  6999.00  959.52  957.77  956.57  956.92  957.94  959.36  961.63  965.86 6999.00
  12   965.93  961.57  959.60  958.64  958.77  959.70  961.20  964.65  970.83 6999.00
  13   967.96  962.82  960.71  959.88  959.99  961.07  963.41  967.87  976.58 6999.00
  14  6999.00  963.95  961.47  961.16  961.53  963.00  966.34  973.53  982.60 6999.00
  15  6999.00 6999.00  965.47  965.47  965.75  966.28 6999.00 6999.00 6999.00 6999.00

 HEAD WILL BE SAVED ON UNIT   58 AT END OF TIME STEP   15, STRESS PERIOD    8
1
  VOLUMETRIC BUDGET FOR ENTIRE MODEL AT END OF TIME STEP   15, STRESS PERIOD   8
  ------------------------------------------------------------------------------

     CUMULATIVE VOLUMES      L**3       RATES FOR THIS TIME STEP      L**3/T
     ------------------                 ------------------------

           IN:                                      IN:
           ---                                      ---
             STORAGE =   406039648.0000               STORAGE =           6.8657
       CONSTANT HEAD =           0.0000         CONSTANT HEAD =           0.0000
               WELLS =           0.0000                 WELLS =           0.0000
     HEAD DEP BOUNDS =    65778104.0000       HEAD DEP BOUNDS =           3.1328
      STREAM LEAKAGE =    83412704.0000        STREAM LEAKAGE =           3.9604
        UZF RECHARGE =     7621252.0000          UZF RECHARGE =           0.0000
               GW ET =           0.0000                 GW ET =           0.0000
     SURFACE LEAKAGE =           0.0000       SURFACE LEAKAGE =           0.0000

            TOTAL IN =   562851712.0000              TOTAL IN =          13.9589

          OUT:                                     OUT:
          ----                                     ----
             STORAGE =    89824632.0000               STORAGE =          13.9586
       CONSTANT HEAD =           0.0000         CONSTANT HEAD =           0.0000
               WELLS =   473040000.0000                 WELLS =           0.0000
     HEAD DEP BOUNDS =           0.0000       HEAD DEP BOUNDS =           0.0000
      STREAM LEAKAGE =           0.0000        STREAM LEAKAGE =           0.0000
        UZF RECHARGE =           0.0000          UZF RECHARGE =           0.0000
               GW ET =           0.0000                 GW ET =           0.0000
     SURFACE LEAKAGE =           0.0000       SURFACE LEAKAGE =           0.0000

           TOTAL OUT =   562864640.0000             TOTAL OUT =          13.9586

            IN - OUT =      -12928.0000              IN - OUT =       3.6430E-04

 PERCENT DISCREPANCY =          -0.00     PERCENT DISCREPANCY =           0.00






         TIME SUMMARY AT END OF TIME STEP   15 IN STRESS PERIOD    8
                    SECONDS     MINUTES      HOURS       DAYS        YEARS
                    -----------------------------------------------------------
   TIME STEP LENGTH 3.14103E+05  5235.0      87.251      3.6354     9.95332E-03
 STRESS PERIOD TIME 2.62800E+06  43800.      730.00      30.417     8.32763E-02
         TOTAL TIME 2.10240E+07 3.50400E+05  5840.0      243.33     0.66621    
1
1
                            STRESS PERIOD NO.    9, LENGTH =   2628000.    
                            -----------------------------------------------

                              NUMBER OF TIME STEPS =    15

                               MULTIPLIER FOR DELT =     1.100

                            INITIAL TIME STEP SIZE =   82713.07    

 WELL NO.  LAYER   ROW   COL   STRESS RATE         
 --------------------------------------------------
      1      1      6      4      -1.000    
      2      1      6      5      -1.000    
      3      1      7      4      -1.000    
      4      1      7      5      -1.000    
      5      1      8      4      -1.000    
      6      1      8      5      -1.000    
      7      1      9      4      -1.000    
      8      1      9      5      -1.000    
      9      1     10      4      -1.000    
     10      1     10      5      -1.000    

     10 WELLS

 REUSING NON-PARAMETER GHB CELLS FROM LAST STRESS PERIOD

      2 GHB CELLS

 REUSING STREAM SEGMENT DATA FROM LAST STRESS PERIOD



            AREAL INFILTRATION RATE
 READING ON UNIT   19 WITH FORMAT: (10F4.0)            

            1           2           3           4           5           6           7           8           9          10
 ........................................................................................................................
   1   3.0000E-09  6.0000E-09   0.000       0.000       0.000       0.000       0.000       0.000       0.000       0.000    
   2   6.0000E-09  3.0000E-09  6.0000E-09   0.000       0.000      2.4000E-08  2.4000E-08  1.5000E-08   0.000       0.000    
   3    0.000      1.5000E-08  3.0000E-09  3.0000E-09  2.4000E-08  2.4000E-08  1.5000E-08  1.5000E-08   0.000       0.000    
   4   2.4000E-08  1.5000E-08  3.0000E-09  3.0000E-09  3.0000E-09  3.0000E-09  3.0000E-09  3.0000E-09  6.0000E-09   0.000    
   5   2.4000E-08  1.5000E-08  3.0000E-09  3.0000E-09  3.0000E-09  3.0000E-09  3.0000E-09  3.0000E-09  3.0000E-09  3.0000E-09
   6   2.4000E-08  1.5000E-08  1.5000E-08  6.0000E-09  6.0000E-09  3.0000E-09  3.0000E-09  3.0000E-09  3.0000E-09  1.5000E-08
   7   2.4000E-08  1.5000E-08  1.5000E-08  6.0000E-09  6.0000E-09  3.0000E-09  3.0000E-09  6.0000E-09  6.0000E-09   0.000    
   8    0.000      1.5000E-08  1.5000E-08  6.0000E-09  6.0000E-09  3.0000E-09  3.0000E-09  6.0000E-09  1.5000E-08   0.000    
   9    0.000      1.5000E-08  1.5000E-08  6.0000E-09  6.0000E-09  3.0000E-09  3.0000E-09  6.0000E-09  1.5000E-08   0.000    
  10    0.000      1.5000E-08  1.5000E-08  6.0000E-09  6.0000E-09  3.0000E-09  3.0000E-09  6.0000E-09  1.5000E-08  2.4000E-08
  11    0.000      3.0000E-09  3.0000E-09  3.0000E-09  3.0000E-09  3.0000E-09  3.0000E-09  6.0000E-09  1.5000E-08   0.000    
  12   3.0000E-09  3.0000E-09  3.0000E-09  3.0000E-09  3.0000E-09  3.0000E-09  3.0000E-09  3.0000E-09  6.0000E-09   0.000    
  13   3.0000E-09  3.0000E-09  6.0000E-09  6.0000E-09  6.0000E-09  6.0000E-09  6.0000E-09  3.0000E-09  3.0000E-09   0.000    
  14    0.000      6.0000E-09  1.5000E-08  1.5000E-08  1.5000E-08  1.5000E-08  1.5000E-08  6.0000E-09  3.0000E-09   0.000    
  15    0.000       0.000      2.4000E-08  2.4000E-08  2.4000E-08  2.4000E-08   0.000       0.000       0.000       0.000    

USING ET RATE FROM PREVIOUS STRESS PERIOD. CURRENT PERIOD IS:       9

 USING ET EXTINCTION DEPTH FROM PREVIOUS STRESS PERIOD. CURRENT PERIOD IS:       9

 USING EXTINCTION WATER CONTENT FROM PREVIOUS STRESS PERIOD. CURRENT PERIOD IS:       9
 
 SOLVING FOR HEAD 
                                                   Max.-Head-Change                         Max.-Flux-Residual
  Residual-Control   Outer-Iter.   Inner-Iter.     Column Row Layer    Maximum-Head-Change  Column Row Layer    Maximum-Flux-Residual          L2-NORM 
          0                 1           2             4    8     1       0.9303510386E-02       4    8    1         0.5182752823E+00      0.1412367228E+01
          0                 2           2             4    8     1      -0.9218949483E-03       4    8    1        -0.5182764247E-01      0.1412366872E+00
          0                 3           1             4    8     1       0.8221695435E-04       4    8    1         0.4664487288E-02      0.1271130378E-01

    ------------------------------------------------
       NWT REQUIRED            3 OUTER ITERATIONS 
       AND A TOTAL OF          5 INNER ITERATIONS.
    ------------------------------------------------

 NO OUTPUT CONTROL FOR STRESS PERIOD    9   TIME STEP    1
 
 SOLVING FOR HEAD 
                                                   Max.-Head-Change                         Max.-Flux-Residual
  Residual-Control   Outer-Iter.   Inner-Iter.     Column Row Layer    Maximum-Head-Change  Column Row Layer    Maximum-Flux-Residual          L2-NORM 
          0                 1           2             4    8     1       0.1009930091E-01       4    8    1         0.5120431875E+00      0.1395475809E+01
          0                 2           2             4    8     1      -0.1000751009E-02       4    8    1        -0.5120445180E-01      0.1395475369E+00
          0                 3           1             4    8     1       0.8924953646E-04       4    8    1         0.4608399926E-02      0.1255928031E-01

    ------------------------------------------------
       NWT REQUIRED            3 OUTER ITERATIONS 
       AND A TOTAL OF          5 INNER ITERATIONS.
    ------------------------------------------------

 NO OUTPUT CONTROL FOR STRESS PERIOD    9   TIME STEP    2
 
 SOLVING FOR HEAD 
                                                   Max.-Head-Change                         Max.-Flux-Residual
  Residual-Control   Outer-Iter.   Inner-Iter.     Column Row Layer    Maximum-Head-Change  Column Row Layer    Maximum-Flux-Residual          L2-NORM 
          0                 1           2             4    8     1       0.1094953911E-01       4    8    1         0.5053058741E+00      0.1375801955E+01
          0                 2           2             4    8     1      -0.1085002464E-02       4    8    1        -0.5053074227E-01      0.1375801436E+00
          0                 3           1             4    8     1       0.9676329338E-04       4    8    1         0.4547765866E-02      0.1238221498E-01

    ------------------------------------------------
       NWT REQUIRED            3 OUTER ITERATIONS 
       AND A TOTAL OF          5 INNER ITERATIONS.
    ------------------------------------------------

 NO OUTPUT CONTROL FOR STRESS PERIOD    9   TIME STEP    3
 
 SOLVING FOR HEAD 
                                                   Max.-Head-Change                         Max.-Flux-Residual
  Residual-Control   Outer-Iter.   Inner-Iter.     Column Row Layer    Maximum-Head-Change  Column Row Layer    Maximum-Flux-Residual          L2-NORM 
          0                 1           2             4    8     1       0.1185554653E-01       4    8    1         0.4980436059E+00      0.1355398753E+01
          0                 2           2             4    8     1      -0.1174780295E-02       4    8    1        -0.4980454062E-01      0.1355398147E+00
          0                 3           1             4    8     1       0.1047699048E-03       4    8    1         0.4482407459E-02      0.1219858543E-01
          0                 4           1             4    8     1      -0.8315920870E-05       4    8    1        -0.3590409392E-03      0.9771069458E-03

    ------------------------------------------------
       NWT REQUIRED            4 OUTER ITERATIONS 
       AND A TOTAL OF          6 INNER ITERATIONS.
    ------------------------------------------------

 NO OUTPUT CONTROL FOR STRESS PERIOD    9   TIME STEP    4
 
 SOLVING FOR HEAD 
                                                   Max.-Head-Change                         Max.-Flux-Residual
  Residual-Control   Outer-Iter.   Inner-Iter.     Column Row Layer    Maximum-Head-Change  Column Row Layer    Maximum-Flux-Residual          L2-NORM 
          0                 1           2             4    8     1       0.1281823657E-01       4    8    1         0.4902387034E+00      0.1334323993E+01
          0                 2           2             4    8     1      -0.1270175052E-02       4    8    1        -0.4902407938E-01      0.1334323295E+00
          0                 3           2             4    8     1       0.1132774464E-03       4    8    1         0.4412165650E-02      0.1200891183E-01
          0                 4           1             4    8     1      -0.8991191621E-05       4    8    1        -0.3534145785E-03      0.9619140729E-03

    ------------------------------------------------
       NWT REQUIRED            4 OUTER ITERATIONS 
       AND A TOTAL OF          7 INNER ITERATIONS.
    ------------------------------------------------

 OUTPUT CONTROL FOR STRESS PERIOD    9   TIME STEP    5
    PRINT BUDGET
    SAVE BUDGET

            WELLS   PERIOD    9   STEP   5
 WELL      1   LAYER   1   ROW     6   COL     4   RATE    -1.00000    
 WELL      2   LAYER   1   ROW     6   COL     5   RATE    -1.00000    
 WELL      3   LAYER   1   ROW     7   COL     4   RATE    -1.00000    
 WELL      4   LAYER   1   ROW     7   COL     5   RATE    -1.00000    
 WELL      5   LAYER   1   ROW     8   COL     4   RATE    -1.00000    
 WELL      6   LAYER   1   ROW     8   COL     5   RATE    -1.00000    
 WELL      7   LAYER   1   ROW     9   COL     4   RATE    -1.00000    
 WELL      8   LAYER   1   ROW     9   COL     5   RATE    -1.00000    
 WELL      9   LAYER   1   ROW    10   COL     4   RATE    -1.00000    
 WELL     10   LAYER   1   ROW    10   COL     5   RATE    -1.00000    

  HEAD DEP BOUNDS   PERIOD    9   STEP   5
 BOUNDARY      1   LAYER   1   ROW    13   COL     1   RATE    0.761542    
 BOUNDARY      2   LAYER   1   ROW    14   COL     9   RATE     2.37148    



 STREAM LISTING     PERIOD      9   STEP        5

 LAYER ROW COL. STREAM  RCH.  FLOW INTO     FLOW TO   FLOW OUT OF   OVRLND.     DIRECT     STREAM       STREAM     STREAM     STREAM   STREAMBED  STREAMBED
                SEG.NO.  NO.  STRM. RCH.    AQUIFER    STRM. RCH.    RUNOFF     PRECIP       ET          HEAD       DEPTH      WIDTH   CONDCTNC.   GRADIENT

   1    1    1     1     1    2.5000E+01  2.4515E-09   2.5000E+01  0.000E+00  0.000E+00  0.000E+00  1.09423E+03  1.178E+00  1.304E+01  5.867E-10  1.393E+00
   1    2    2     1     2    2.5000E+01  3.8085E-09   2.5000E+01  0.000E+00  0.000E+00  0.000E+00  1.08924E+03  1.177E+00  1.302E+01  9.117E-10  1.392E+00
   1    3    3     1     3    2.5000E+01  3.2661E-09   2.5000E+01  0.000E+00  0.000E+00  0.000E+00  1.08360E+03  1.178E+00  1.303E+01  7.818E-10  1.393E+00
   1    3    4     1     4    2.5000E+01  3.0219E-09   2.5000E+01  0.000E+00  0.000E+00  0.000E+00  1.07859E+03  1.178E+00  1.303E+01  7.233E-10  1.393E+00
   1    4    5     2     1    1.5000E+01  3.0290E-01   1.4697E+01  0.000E+00  0.000E+00  0.000E+00  1.07282E+03  8.834E-01  1.200E+01  7.800E-02  1.294E+00
   1    5    6     2     2    1.4697E+01  2.3243E-01   1.4465E+01  0.000E+00  0.000E+00  0.000E+00  1.06738E+03  8.738E-01  1.200E+01  6.000E-02  1.291E+00
   1    6    6     2     3    1.4465E+01  2.3193E-01   1.4233E+01  0.000E+00  0.000E+00  0.000E+00  1.06266E+03  8.654E-01  1.200E+01  6.000E-02  1.288E+00
   1    7    6     2     4    1.4233E+01  2.3142E-01   1.4001E+01  0.000E+00  0.000E+00  0.000E+00  1.05793E+03  8.570E-01  1.200E+01  6.000E-02  1.286E+00
   1    8    6     2     5    1.4001E+01  2.3091E-01   1.3770E+01  0.000E+00  0.000E+00  0.000E+00  1.05321E+03  8.486E-01  1.200E+01  6.000E-02  1.283E+00
   1    3    5     3     1    1.0000E+01  2.8252E-01   9.7175E+00  0.000E+00  0.000E+00  0.000E+00  1.07555E+03  1.909E+00  9.636E+00  7.227E-02  1.955E+00
   1    3    6     3     2    9.7175E+00  2.4905E-01   9.4684E+00  0.000E+00  0.000E+00  0.000E+00  1.07264E+03  1.727E+00  8.909E+00  6.682E-02  1.864E+00
   1    3    7     3     3    9.4684E+00  1.9718E-01   9.2712E+00  0.000E+00  0.000E+00  0.000E+00  1.06987E+03  1.555E+00  8.218E+00  5.547E-02  1.777E+00
   1    4    8     3     4    9.2712E+00  2.2567E-01   9.0456E+00  0.000E+00  0.000E+00  0.000E+00  1.06682E+03  1.364E+00  7.455E+00  6.709E-02  1.682E+00
   1    5    8     3     5    9.0456E+00  1.5790E-01   8.8877E+00  0.000E+00  0.000E+00  0.000E+00  1.06362E+03  1.164E+00  6.655E+00  4.991E-02  1.582E+00
   1    6    8     3     6    8.8877E+00  5.5980E-02   8.8317E+00  0.000E+00  0.000E+00  0.000E+00  1.06158E+03  1.036E+00  6.145E+00  1.844E-02  1.518E+00
   1    5   10     4     1    1.0000E+01  9.0919E-02   9.9091E+00  0.000E+00  0.000E+00  0.000E+00  1.07836E+03  6.368E-01  1.000E+01  2.500E-02  1.212E+00
   1    5    9     4     2    9.9091E+00  1.8158E-01   9.7275E+00  0.000E+00  0.000E+00  0.000E+00  1.07154E+03  6.315E-01  1.000E+01  5.000E-02  1.211E+00
   1    6    8     4     3    9.7275E+00  1.2689E-01   9.6006E+00  0.000E+00  0.000E+00  0.000E+00  1.06381E+03  6.256E-01  1.000E+01  3.500E-02  1.209E+00
   1    6    8     5     1    1.8432E+01  3.3262E-09   1.8432E+01  0.000E+00  0.000E+00  0.000E+00  1.05883E+03  8.293E-01  2.172E+01  8.686E-10  1.276E+00
   1    7    7     5     2    1.8432E+01  4.1514E-09   1.8432E+01  0.000E+00  0.000E+00  0.000E+00  1.05433E+03  8.286E-01  2.169E+01  1.084E-09  1.276E+00
   1    8    7     5     3    1.8432E+01  2.9126E-09   1.8432E+01  0.000E+00  0.000E+00  0.000E+00  1.05008E+03  8.296E-01  2.173E+01  7.606E-10  1.277E+00
   1    8    6     5     4    1.8432E+01  2.0836E-09   1.8432E+01  0.000E+00  0.000E+00  0.000E+00  1.04708E+03  8.303E-01  2.176E+01  5.440E-10  1.277E+00
   1    9    6     6     1    3.2203E+01  2.6507E-01   3.1938E+01  0.000E+00  0.000E+00  0.000E+00  1.04415E+03  1.418E+00  1.200E+01  6.000E-02  1.473E+00
   1   10    7     6     2    3.1938E+01  2.6465E-01   3.1673E+01  0.000E+00  0.000E+00  0.000E+00  1.03959E+03  1.411E+00  1.200E+01  6.000E-02  1.470E+00
   1   11    7     6     3    3.1673E+01  2.6423E-01   3.1409E+01  0.000E+00  0.000E+00  0.000E+00  1.03504E+03  1.404E+00  1.200E+01  6.000E-02  1.468E+00
   1   12    7     6     4    3.1409E+01  2.6380E-01   3.1145E+01  0.000E+00  0.000E+00  0.000E+00  1.03049E+03  1.397E+00  1.200E+01  6.000E-02  1.466E+00
   1   13    7     6     5    3.1145E+01  1.0540E-01   3.1040E+01  0.000E+00  0.000E+00  0.000E+00  1.02730E+03  1.392E+00  1.200E+01  2.400E-02  1.464E+00
   1   14    9     7     1    1.5000E+02  2.9539E-14   1.5000E+02  0.000E+00  0.000E+00  0.000E+00  1.03986E+03  2.283E+00  5.528E+01  5.591E-15  1.761E+00
   1   13    8     7     2    1.5000E+02  3.2486E-13   1.5000E+02  0.000E+00  0.000E+00  0.000E+00  1.03478E+03  2.283E+00  5.527E+01  6.150E-14  1.761E+00
   1   13    7     7     3    1.5000E+02  2.9539E-14   1.5000E+02  0.000E+00  0.000E+00  0.000E+00  1.02970E+03  2.283E+00  5.528E+01  5.591E-15  1.761E+00
   1   13    6     8     1    1.8104E+02  0.0000E+00   1.8104E+02  0.000E+00  0.000E+00  0.000E+00  1.02490E+03  3.023E+00  4.383E+01  0.000E+00  2.008E+00
   1   13    5     8     2    1.8104E+02  2.6787E-12   1.8104E+02  0.000E+00  0.000E+00  0.000E+00  1.01864E+03  3.014E+00  4.371E+01  4.454E-13  2.005E+00
   1   13    4     8     3    1.8104E+02  2.6787E-12   1.8104E+02  0.000E+00  0.000E+00  0.000E+00  1.01239E+03  3.014E+00  4.371E+01  4.454E-13  2.005E+00
   1   13    3     8     4    1.8104E+02  2.6787E-12   1.8104E+02  0.000E+00  0.000E+00  0.000E+00  1.00614E+03  3.014E+00  4.371E+01  4.454E-13  2.005E+00
   1   13    2     8     5    1.8104E+02  2.6787E-12   1.8104E+02  0.000E+00  0.000E+00  0.000E+00  9.99889E+02  3.014E+00  4.371E+01  4.454E-13  2.005E+00
   1   13    1     8     6    1.8104E+02  1.6099E-08   1.8104E+02  0.000E+00  0.000E+00  0.000E+00  9.94893E+02  3.018E+00  4.376E+01  2.675E-09  2.006E+00



 UBDSV3 SAVING "     NETRECHARGE" ON UNIT 100 AT TIME STEP  5, STRESS PERIOD   9
 UBDSV3 SAVING "    NETDISCHARGE" ON UNIT 101 AT TIME STEP  5, STRESS PERIOD   9
 UBDSV3 SAVING "           GW ET" ON UNIT  61 AT TIME STEP  5, STRESS PERIOD   9
 UBDSV3 SAVING "    UZF RECHARGE" ON UNIT  61 AT TIME STEP  5, STRESS PERIOD   9
 UBDSV3 SAVING " SURFACE LEAKAGE" ON UNIT  61 AT TIME STEP  5, STRESS PERIOD   9
 UBDSV3 SAVING "       HORT+DUNN" ON UNIT  61 AT TIME STEP  5, STRESS PERIOD   9
 UBDSV3 SAVING "  STORAGE CHANGE" ON UNIT  61 AT TIME STEP  5, STRESS PERIOD   9


UNSATURATED ZONE PACKAGE VOLUMETRIC BUDGET FOR  TIME STEP     5 STRESS PERIOD    9
  ------------------------------------------------------------------------------



     CUMULATIVE VOLUMES      L**3       RATES FOR THIS TIME STEP      L**3/T
     ------------------                 ------------------------

           IN:                                      IN:
           ---                                      ---
        INFILTRATION =    62434011.8105          INFILTRATION =           2.9000

          OUT:                                     OUT:
          ----                                     ----
              UZF ET =    17668953.9451                UZF ET =           1.1723
        UZF RECHARGE =     7621246.6355          UZF RECHARGE =       0.0000E+00

            IN - OUT =    37143811.2300              IN - OUT =           1.7277

          STORAGE:                                 STORAGE:
          --------                                 --------
      STORAGE CHANGE =    37143811.1173        STORAGE CHANGE =           1.7277

 PERCENT DISCREPANCY IS DIFFERENCE BETWEEN IN-OUT MINUS CHANGE IN STORAGE
 DIVIDED BY THE AVERAGE OF IN AND OUT TIMES 100

 PERCENT DISCREPANCY =           0.00     PERCENT DISCREPANCY =           0.00






1
  VOLUMETRIC BUDGET FOR ENTIRE MODEL AT END OF TIME STEP    5, STRESS PERIOD   9
  ------------------------------------------------------------------------------

     CUMULATIVE VOLUMES      L**3       RATES FOR THIS TIME STEP      L**3/T
     ------------------                 ------------------------

           IN:                                      IN:
           ---                                      ---
             STORAGE =   409462656.0000               STORAGE =           6.6451
       CONSTANT HEAD =           0.0000         CONSTANT HEAD =           0.0000
               WELLS =           0.0000                 WELLS =           0.0000
     HEAD DEP BOUNDS =    67360152.0000       HEAD DEP BOUNDS =           3.1330
      STREAM LEAKAGE =    85417976.0000        STREAM LEAKAGE =           3.9604
        UZF RECHARGE =     7621252.0000          UZF RECHARGE =           0.0000
               GW ET =           0.0000                 GW ET =           0.0000
     SURFACE LEAKAGE =           0.0000       SURFACE LEAKAGE =           0.0000

            TOTAL IN =   569862016.0000              TOTAL IN =          13.7385

          OUT:                                     OUT:
          ----                                     ----
             STORAGE =    91784696.0000               STORAGE =           3.7387
       CONSTANT HEAD =           0.0000         CONSTANT HEAD =           0.0000
               WELLS =   478089728.0000                 WELLS =          10.0000
     HEAD DEP BOUNDS =           0.0000       HEAD DEP BOUNDS =           0.0000
      STREAM LEAKAGE =           0.0000        STREAM LEAKAGE =           0.0000
        UZF RECHARGE =           0.0000          UZF RECHARGE =           0.0000
               GW ET =           0.0000                 GW ET =           0.0000
     SURFACE LEAKAGE =           0.0000       SURFACE LEAKAGE =           0.0000

           TOTAL OUT =   569874432.0000             TOTAL OUT =          13.7387

            IN - OUT =      -12416.0000              IN - OUT =      -1.4305E-04

 PERCENT DISCREPANCY =          -0.00     PERCENT DISCREPANCY =          -0.00






         TIME SUMMARY AT END OF TIME STEP    5 IN STRESS PERIOD    9
                    SECONDS     MINUTES      HOURS       DAYS        YEARS
                    -----------------------------------------------------------
   TIME STEP LENGTH 1.21100E+05  2018.3      33.639      1.4016     3.83743E-03
 STRESS PERIOD TIME 5.04972E+05  8416.2      140.27      5.8446     1.60016E-02
         TOTAL TIME 2.15290E+07 3.58816E+05  5980.3      249.18     0.68221    
1
 
 SOLVING FOR HEAD 
                                                   Max.-Head-Change                         Max.-Flux-Residual
  Residual-Control   Outer-Iter.   Inner-Iter.     Column Row Layer    Maximum-Head-Change  Column Row Layer    Maximum-Flux-Residual          L2-NORM 
          0                 1           2             4    8     1       0.1383756442E-01       4    8    1         0.4818594143E+00      0.1312606240E+01
          0                 2           2             4    8     1      -0.1371182340E-02       4    8    1        -0.4818618362E-01      0.1312605444E+00
          0                 3           2             4    8     1       0.1222855250E-03       4    8    1         0.4336754680E-02      0.1181345125E-01
          0                 4           1             4    8     1      -0.9706191510E-05       4    8    1        -0.3473741549E-03      0.9462576803E-03

    ------------------------------------------------
       NWT REQUIRED            4 OUTER ITERATIONS 
       AND A TOTAL OF          7 INNER ITERATIONS.
    ------------------------------------------------

 NO OUTPUT CONTROL FOR STRESS PERIOD    9   TIME STEP    6
 
 SOLVING FOR HEAD 
                                                   Max.-Head-Change                         Max.-Flux-Residual
  Residual-Control   Outer-Iter.   Inner-Iter.     Column Row Layer    Maximum-Head-Change  Column Row Layer    Maximum-Flux-Residual          L2-NORM 
          0                 1           2             4    8     1       0.1491307942E-01       4    8    1         0.4728882215E+00      0.1290293563E+01
          0                 2           2             4    8     1      -0.1477757559E-02       4    8    1        -0.4728910210E-01      0.1290292666E+00
          0                 3           2             4    8     1       0.1317901637E-03       4    8    1         0.4256016972E-02      0.1161263631E-01
          0                 4           1             4    8     1      -0.1046060478E-04       4    8    1        -0.3409070673E-03      0.9301723932E-03

    ------------------------------------------------
       NWT REQUIRED            4 OUTER ITERATIONS 
       AND A TOTAL OF          7 INNER ITERATIONS.
    ------------------------------------------------

 NO OUTPUT CONTROL FOR STRESS PERIOD    9   TIME STEP    7
 
 SOLVING FOR HEAD 
                                                   Max.-Head-Change                         Max.-Flux-Residual
  Residual-Control   Outer-Iter.   Inner-Iter.     Column Row Layer    Maximum-Head-Change  Column Row Layer    Maximum-Flux-Residual          L2-NORM 
          0                 1           2             4    8     1       0.1604359204E-01       4    8    1         0.4633119464E+00      0.1267433742E+01
          0                 2           2             4    8     1      -0.1589782898E-02       4    8    1        -0.4633151718E-01      0.1267432741E+00
          0                 3           2             4    8     1       0.1417808543E-03       4    8    1         0.4169833889E-02      0.1140689706E-01
          0                 4           1             4    8     1      -0.1125359805E-04       4    8    1        -0.3340038043E-03      0.9136926807E-03

    ------------------------------------------------
       NWT REQUIRED            4 OUTER ITERATIONS 
       AND A TOTAL OF          7 INNER ITERATIONS.
    ------------------------------------------------

 NO OUTPUT CONTROL FOR STRESS PERIOD    9   TIME STEP    8
 
 SOLVING FOR HEAD 
                                                   Max.-Head-Change                         Max.-Flux-Residual
  Residual-Control   Outer-Iter.   Inner-Iter.     Column Row Layer    Maximum-Head-Change  Column Row Layer    Maximum-Flux-Residual          L2-NORM 
          0                 1           2             4    8     1       0.1722711549E-01       4    8    1         0.4531224588E+00      0.1244062961E+01
          0                 2           2             4    8     1      -0.1707061559E-02       4    8    1        -0.4531261619E-01      0.1244061856E+00
          0                 3           2             4    8     1       0.1522400459E-03       4    8    1         0.4078132329E-02      0.1119655918E-01
          0                 4           1             4    8     1      -0.1208377774E-04       4    8    1        -0.3266585099E-03      0.8968446069E-03

    ------------------------------------------------
       NWT REQUIRED            4 OUTER ITERATIONS 
       AND A TOTAL OF          7 INNER ITERATIONS.
    ------------------------------------------------

 NO OUTPUT CONTROL FOR STRESS PERIOD    9   TIME STEP    9
 
 SOLVING FOR HEAD 
                                                   Max.-Head-Change                         Max.-Flux-Residual
  Residual-Control   Outer-Iter.   Inner-Iter.     Column Row Layer    Maximum-Head-Change  Column Row Layer    Maximum-Flux-Residual          L2-NORM 
          0                 1           2             4    8     1       0.1846080060E-01       4    8    1         0.4423181308E+00      0.1220216932E+01
          0                 2           2             4    8     1      -0.1829311295E-02       4    8    1        -0.4423223644E-01      0.1220215726E+00
          0                 3           2             4    8     1       0.1631425654E-03       4    8    1         0.3980897616E-02      0.1098194408E-01
          0                 4           1             4    8     1      -0.1294914526E-04       4    8    1        -0.3188700107E-03      0.8796539345E-03

    ------------------------------------------------
       NWT REQUIRED            4 OUTER ITERATIONS 
       AND A TOTAL OF          7 INNER ITERATIONS.
    ------------------------------------------------

 OUTPUT CONTROL FOR STRESS PERIOD    9   TIME STEP   10
    PRINT BUDGET
    SAVE BUDGET

            WELLS   PERIOD    9   STEP  10
 WELL      1   LAYER   1   ROW     6   COL     4   RATE    -1.00000    
 WELL      2   LAYER   1   ROW     6   COL     5   RATE    -1.00000    
 WELL      3   LAYER   1   ROW     7   COL     4   RATE    -1.00000    
 WELL      4   LAYER   1   ROW     7   COL     5   RATE    -1.00000    
 WELL      5   LAYER   1   ROW     8   COL     4   RATE    -1.00000    
 WELL      6   LAYER   1   ROW     8   COL     5   RATE    -1.00000    
 WELL      7   LAYER   1   ROW     9   COL     4   RATE    -1.00000    
 WELL      8   LAYER   1   ROW     9   COL     5   RATE    -1.00000    
 WELL      9   LAYER   1   ROW    10   COL     4   RATE    -1.00000    
 WELL     10   LAYER   1   ROW    10   COL     5   RATE    -1.00000    

  HEAD DEP BOUNDS   PERIOD    9   STEP  10
 BOUNDARY      1   LAYER   1   ROW    13   COL     1   RATE    0.761730    
 BOUNDARY      2   LAYER   1   ROW    14   COL     9   RATE     2.37165    



 STREAM LISTING     PERIOD      9   STEP       10

 LAYER ROW COL. STREAM  RCH.  FLOW INTO     FLOW TO   FLOW OUT OF   OVRLND.     DIRECT     STREAM       STREAM     STREAM     STREAM   STREAMBED  STREAMBED
                SEG.NO.  NO.  STRM. RCH.    AQUIFER    STRM. RCH.    RUNOFF     PRECIP       ET          HEAD       DEPTH      WIDTH   CONDCTNC.   GRADIENT

   1    1    1     1     1    2.5000E+01  2.4515E-09   2.5000E+01  0.000E+00  0.000E+00  0.000E+00  1.09423E+03  1.178E+00  1.304E+01  5.867E-10  1.393E+00
   1    2    2     1     2    2.5000E+01  3.8085E-09   2.5000E+01  0.000E+00  0.000E+00  0.000E+00  1.08924E+03  1.177E+00  1.302E+01  9.117E-10  1.392E+00
   1    3    3     1     3    2.5000E+01  3.2661E-09   2.5000E+01  0.000E+00  0.000E+00  0.000E+00  1.08360E+03  1.178E+00  1.303E+01  7.818E-10  1.393E+00
   1    3    4     1     4    2.5000E+01  3.0219E-09   2.5000E+01  0.000E+00  0.000E+00  0.000E+00  1.07859E+03  1.178E+00  1.303E+01  7.233E-10  1.393E+00
   1    4    5     2     1    1.5000E+01  3.0290E-01   1.4697E+01  0.000E+00  0.000E+00  0.000E+00  1.07282E+03  8.834E-01  1.200E+01  7.800E-02  1.294E+00
   1    5    6     2     2    1.4697E+01  2.3243E-01   1.4465E+01  0.000E+00  0.000E+00  0.000E+00  1.06738E+03  8.738E-01  1.200E+01  6.000E-02  1.291E+00
   1    6    6     2     3    1.4465E+01  2.3193E-01   1.4233E+01  0.000E+00  0.000E+00  0.000E+00  1.06266E+03  8.654E-01  1.200E+01  6.000E-02  1.288E+00
   1    7    6     2     4    1.4233E+01  2.3142E-01   1.4001E+01  0.000E+00  0.000E+00  0.000E+00  1.05793E+03  8.570E-01  1.200E+01  6.000E-02  1.286E+00
   1    8    6     2     5    1.4001E+01  2.3091E-01   1.3770E+01  0.000E+00  0.000E+00  0.000E+00  1.05321E+03  8.486E-01  1.200E+01  6.000E-02  1.283E+00
   1    3    5     3     1    1.0000E+01  2.8252E-01   9.7175E+00  0.000E+00  0.000E+00  0.000E+00  1.07555E+03  1.909E+00  9.636E+00  7.227E-02  1.955E+00
   1    3    6     3     2    9.7175E+00  2.4905E-01   9.4684E+00  0.000E+00  0.000E+00  0.000E+00  1.07264E+03  1.727E+00  8.909E+00  6.682E-02  1.864E+00
   1    3    7     3     3    9.4684E+00  1.9718E-01   9.2712E+00  0.000E+00  0.000E+00  0.000E+00  1.06987E+03  1.555E+00  8.218E+00  5.547E-02  1.777E+00
   1    4    8     3     4    9.2712E+00  2.2567E-01   9.0456E+00  0.000E+00  0.000E+00  0.000E+00  1.06682E+03  1.364E+00  7.455E+00  6.709E-02  1.682E+00
   1    5    8     3     5    9.0456E+00  1.5790E-01   8.8877E+00  0.000E+00  0.000E+00  0.000E+00  1.06362E+03  1.164E+00  6.655E+00  4.991E-02  1.582E+00
   1    6    8     3     6    8.8877E+00  5.5980E-02   8.8317E+00  0.000E+00  0.000E+00  0.000E+00  1.06158E+03  1.036E+00  6.145E+00  1.844E-02  1.518E+00
   1    5   10     4     1    1.0000E+01  9.0919E-02   9.9091E+00  0.000E+00  0.000E+00  0.000E+00  1.07836E+03  6.368E-01  1.000E+01  2.500E-02  1.212E+00
   1    5    9     4     2    9.9091E+00  1.8158E-01   9.7275E+00  0.000E+00  0.000E+00  0.000E+00  1.07154E+03  6.315E-01  1.000E+01  5.000E-02  1.211E+00
   1    6    8     4     3    9.7275E+00  1.2689E-01   9.6006E+00  0.000E+00  0.000E+00  0.000E+00  1.06381E+03  6.256E-01  1.000E+01  3.500E-02  1.209E+00
   1    6    8     5     1    1.8432E+01  3.3262E-09   1.8432E+01  0.000E+00  0.000E+00  0.000E+00  1.05883E+03  8.293E-01  2.172E+01  8.686E-10  1.276E+00
   1    7    7     5     2    1.8432E+01  4.1514E-09   1.8432E+01  0.000E+00  0.000E+00  0.000E+00  1.05433E+03  8.286E-01  2.169E+01  1.084E-09  1.276E+00
   1    8    7     5     3    1.8432E+01  2.9126E-09   1.8432E+01  0.000E+00  0.000E+00  0.000E+00  1.05008E+03  8.296E-01  2.173E+01  7.606E-10  1.277E+00
   1    8    6     5     4    1.8432E+01  2.0836E-09   1.8432E+01  0.000E+00  0.000E+00  0.000E+00  1.04708E+03  8.303E-01  2.176E+01  5.440E-10  1.277E+00
   1    9    6     6     1    3.2203E+01  2.6507E-01   3.1938E+01  0.000E+00  0.000E+00  0.000E+00  1.04415E+03  1.418E+00  1.200E+01  6.000E-02  1.473E+00
   1   10    7     6     2    3.1938E+01  2.6465E-01   3.1673E+01  0.000E+00  0.000E+00  0.000E+00  1.03959E+03  1.411E+00  1.200E+01  6.000E-02  1.470E+00
   1   11    7     6     3    3.1673E+01  2.6423E-01   3.1409E+01  0.000E+00  0.000E+00  0.000E+00  1.03504E+03  1.404E+00  1.200E+01  6.000E-02  1.468E+00
   1   12    7     6     4    3.1409E+01  2.6380E-01   3.1145E+01  0.000E+00  0.000E+00  0.000E+00  1.03049E+03  1.397E+00  1.200E+01  6.000E-02  1.466E+00
   1   13    7     6     5    3.1145E+01  1.0540E-01   3.1040E+01  0.000E+00  0.000E+00  0.000E+00  1.02730E+03  1.392E+00  1.200E+01  2.400E-02  1.464E+00
   1   14    9     7     1    1.5000E+02  2.9539E-14   1.5000E+02  0.000E+00  0.000E+00  0.000E+00  1.03986E+03  2.283E+00  5.528E+01  5.591E-15  1.761E+00
   1   13    8     7     2    1.5000E+02  3.2486E-13   1.5000E+02  0.000E+00  0.000E+00  0.000E+00  1.03478E+03  2.283E+00  5.527E+01  6.150E-14  1.761E+00
   1   13    7     7     3    1.5000E+02  2.9539E-14   1.5000E+02  0.000E+00  0.000E+00  0.000E+00  1.02970E+03  2.283E+00  5.528E+01  5.591E-15  1.761E+00
   1   13    6     8     1    1.8104E+02  0.0000E+00   1.8104E+02  0.000E+00  0.000E+00  0.000E+00  1.02490E+03  3.023E+00  4.383E+01  0.000E+00  2.008E+00
   1   13    5     8     2    1.8104E+02  2.6787E-12   1.8104E+02  0.000E+00  0.000E+00  0.000E+00  1.01864E+03  3.014E+00  4.371E+01  4.454E-13  2.005E+00
   1   13    4     8     3    1.8104E+02  2.6787E-12   1.8104E+02  0.000E+00  0.000E+00  0.000E+00  1.01239E+03  3.014E+00  4.371E+01  4.454E-13  2.005E+00
   1   13    3     8     4    1.8104E+02  2.6787E-12   1.8104E+02  0.000E+00  0.000E+00  0.000E+00  1.00614E+03  3.014E+00  4.371E+01  4.454E-13  2.005E+00
   1   13    2     8     5    1.8104E+02  2.6787E-12   1.8104E+02  0.000E+00  0.000E+00  0.000E+00  9.99889E+02  3.014E+00  4.371E+01  4.454E-13  2.005E+00
   1   13    1     8     6    1.8104E+02  1.6099E-08   1.8104E+02  0.000E+00  0.000E+00  0.000E+00  9.94893E+02  3.018E+00  4.376E+01  2.675E-09  2.006E+00



 UBDSV3 SAVING "     NETRECHARGE" ON UNIT 100 AT TIME STEP 10, STRESS PERIOD   9
 UBDSV3 SAVING "    NETDISCHARGE" ON UNIT 101 AT TIME STEP 10, STRESS PERIOD   9
 UBDSV3 SAVING "           GW ET" ON UNIT  61 AT TIME STEP 10, STRESS PERIOD   9
 UBDSV3 SAVING "    UZF RECHARGE" ON UNIT  61 AT TIME STEP 10, STRESS PERIOD   9
 UBDSV3 SAVING " SURFACE LEAKAGE" ON UNIT  61 AT TIME STEP 10, STRESS PERIOD   9
 UBDSV3 SAVING "       HORT+DUNN" ON UNIT  61 AT TIME STEP 10, STRESS PERIOD   9
 UBDSV3 SAVING "  STORAGE CHANGE" ON UNIT  61 AT TIME STEP 10, STRESS PERIOD   9


UNSATURATED ZONE PACKAGE VOLUMETRIC BUDGET FOR  TIME STEP    10 STRESS PERIOD    9
  ------------------------------------------------------------------------------



     CUMULATIVE VOLUMES      L**3       RATES FOR THIS TIME STEP      L**3/T
     ------------------                 ------------------------

           IN:                                      IN:
           ---                                      ---
        INFILTRATION =    64792471.0781          INFILTRATION =           2.9000

          OUT:                                     OUT:
          ----                                     ----
              UZF ET =    18620558.2297                UZF ET =           1.1603
        UZF RECHARGE =     7621246.6355          UZF RECHARGE =       0.0000E+00

            IN - OUT =    38550666.2129              IN - OUT =           1.7397

          STORAGE:                                 STORAGE:
          --------                                 --------
      STORAGE CHANGE =    38550666.0529        STORAGE CHANGE =           1.7397

 PERCENT DISCREPANCY IS DIFFERENCE BETWEEN IN-OUT MINUS CHANGE IN STORAGE
 DIVIDED BY THE AVERAGE OF IN AND OUT TIMES 100

 PERCENT DISCREPANCY =           0.00     PERCENT DISCREPANCY =           0.00






1
  VOLUMETRIC BUDGET FOR ENTIRE MODEL AT END OF TIME STEP   10, STRESS PERIOD   9
  ------------------------------------------------------------------------------

     CUMULATIVE VOLUMES      L**3       RATES FOR THIS TIME STEP      L**3/T
     ------------------                 ------------------------

           IN:                                      IN:
           ---                                      ---
             STORAGE =   414678976.0000               STORAGE =           6.2896
       CONSTANT HEAD =           0.0000         CONSTANT HEAD =           0.0000
               WELLS =           0.0000                 WELLS =           0.0000
     HEAD DEP BOUNDS =    69908296.0000       HEAD DEP BOUNDS =           3.1334
      STREAM LEAKAGE =    88638840.0000        STREAM LEAKAGE =           3.9604
        UZF RECHARGE =     7621252.0000          UZF RECHARGE =           0.0000
               GW ET =           0.0000                 GW ET =           0.0000
     SURFACE LEAKAGE =           0.0000       SURFACE LEAKAGE =           0.0000

            TOTAL IN =   580847360.0000              TOTAL IN =          13.3834

          OUT:                                     OUT:
          ----                                     ----
             STORAGE =    94637472.0000               STORAGE =           3.3835
       CONSTANT HEAD =           0.0000         CONSTANT HEAD =           0.0000
               WELLS =   486222336.0000                 WELLS =          10.0000
     HEAD DEP BOUNDS =           0.0000       HEAD DEP BOUNDS =           0.0000
      STREAM LEAKAGE =           0.0000        STREAM LEAKAGE =           0.0000
        UZF RECHARGE =           0.0000          UZF RECHARGE =           0.0000
               GW ET =           0.0000                 GW ET =           0.0000
     SURFACE LEAKAGE =           0.0000       SURFACE LEAKAGE =           0.0000

           TOTAL OUT =   580859776.0000             TOTAL OUT =          13.3835

            IN - OUT =      -12416.0000              IN - OUT =      -1.4305E-04

 PERCENT DISCREPANCY =          -0.00     PERCENT DISCREPANCY =          -0.00






         TIME SUMMARY AT END OF TIME STEP   10 IN STRESS PERIOD    9
                    SECONDS     MINUTES      HOURS       DAYS        YEARS
                    -----------------------------------------------------------
   TIME STEP LENGTH 1.95033E+05  3250.6      54.176      2.2573     6.18023E-03
 STRESS PERIOD TIME 1.31823E+06  21971.      366.18      15.257     4.17723E-02
         TOTAL TIME 2.23422E+07 3.72370E+05  6206.2      258.59     0.70798    
1
 
 SOLVING FOR HEAD 
                                                   Max.-Head-Change                         Max.-Flux-Residual
  Residual-Control   Outer-Iter.   Inner-Iter.     Column Row Layer    Maximum-Head-Change  Column Row Layer    Maximum-Flux-Residual          L2-NORM 
          0                 1           2             4    8     1       0.1974081429E-01       4    8    1         0.4309025797E+00      0.1195916808E+01
          0                 2           2             4    8     1      -0.1956152377E-02       4    8    1        -0.4309073972E-01      0.1195915504E+00
          0                 3           2             4    8     1       0.1744545468E-03       4    8    1         0.3878162323E-02      0.1076324215E-01
          0                 4           1             4    8     1      -0.1384701311E-04       4    8    1        -0.3106409135E-03      0.8621359016E-03

    ------------------------------------------------
       NWT REQUIRED            4 OUTER ITERATIONS 
       AND A TOTAL OF          7 INNER ITERATIONS.
    ------------------------------------------------

 NO OUTPUT CONTROL FOR STRESS PERIOD    9   TIME STEP   11
 
 SOLVING FOR HEAD 
                                                   Max.-Head-Change                         Max.-Flux-Residual
  Residual-Control   Outer-Iter.   Inner-Iter.     Column Row Layer    Maximum-Head-Change  Column Row Layer    Maximum-Flux-Residual          L2-NORM 
          0                 1           2             4    8     1       0.2106250775E-01       4    8    1         0.4188908074E+00      0.1171167570E+01
          0                 2           2             4    8     1      -0.2087124246E-02       4    8    1        -0.4188962612E-01      0.1171166173E+00
          0                 3           2             4    8     1       0.1861349161E-03       4    8    1         0.3770061462E-02      0.1054049823E-01
          0                 4           1             4    8     1      -0.1477412221E-04       4    8    1        -0.3019820442E-03      0.8442941045E-03

    ------------------------------------------------
       NWT REQUIRED            4 OUTER ITERATIONS 
       AND A TOTAL OF          7 INNER ITERATIONS.
    ------------------------------------------------

 NO OUTPUT CONTROL FOR STRESS PERIOD    9   TIME STEP   12
 
 SOLVING FOR HEAD 
                                                   Max.-Head-Change                         Max.-Flux-Residual
  Residual-Control   Outer-Iter.   Inner-Iter.     Column Row Layer    Maximum-Head-Change  Column Row Layer    Maximum-Flux-Residual          L2-NORM 
          0                 1           2             4    8     1       0.2242024114E-01       4    8    1         0.4063047555E+00      0.1145967534E+01
          0                 2           2             4    8     1      -0.2221668146E-02       4    8    1        -0.4063108947E-01      0.1145966048E+00
          0                 3           2             4    8     1       0.1981338402E-03       4    8    1         0.3656792481E-02      0.1031369717E-01
          0                 4           1             4    8     1      -0.1572651523E-04       4    8    1        -0.2929092025E-03      0.8261273461E-03

    ------------------------------------------------
       NWT REQUIRED            4 OUTER ITERATIONS 
       AND A TOTAL OF          7 INNER ITERATIONS.
    ------------------------------------------------

 NO OUTPUT CONTROL FOR STRESS PERIOD    9   TIME STEP   13
 
 SOLVING FOR HEAD 
                                                   Max.-Head-Change                         Max.-Flux-Residual
  Residual-Control   Outer-Iter.   Inner-Iter.     Column Row Layer    Maximum-Head-Change  Column Row Layer    Maximum-Flux-Residual          L2-NORM 
          0                 1           2             4    8     1       0.2380769207E-01       4    8    1         0.3931796499E+00      0.1120294175E+01
          0                 2           2             4    8     1      -0.2359157694E-02       4    8    1        -0.3931865191E-01      0.1120292605E+00
          0                 3           2             4    8     1       0.2103954552E-03       4    8    1         0.3538672363E-02      0.1008263623E-01
          0                 4           1             4    8     1      -0.1669975889E-04       4    8    1        -0.2834477809E-03      0.8076193589E-03

    ------------------------------------------------
       NWT REQUIRED            4 OUTER ITERATIONS 
       AND A TOTAL OF          7 INNER ITERATIONS.
    ------------------------------------------------

 NO OUTPUT CONTROL FOR STRESS PERIOD    9   TIME STEP   14
 
 SOLVING FOR HEAD 
                                                   Max.-Head-Change                         Max.-Flux-Residual
  Residual-Control   Outer-Iter.   Inner-Iter.     Column Row Layer    Maximum-Head-Change  Column Row Layer    Maximum-Flux-Residual          L2-NORM 
          0                 1           2             4    8     1       0.2521749457E-01       4    8    1         0.3795560404E+00      0.1094115263E+01
          0                 2           2             4    8     1      -0.2498863091E-02       4    8    1        -0.3795636779E-01      0.1094113607E+00
          0                 3           2             4    8     1       0.2228546754E-03       4    8    1         0.3416066025E-02      0.9847025312E-02
          0                 4           1             4    8     1      -0.1768868673E-04       4    8    1        -0.2736270103E-03      0.7887469113E-03

    ------------------------------------------------
       NWT REQUIRED            4 OUTER ITERATIONS 
       AND A TOTAL OF          7 INNER ITERATIONS.
    ------------------------------------------------

 OUTPUT CONTROL FOR STRESS PERIOD    9   TIME STEP   15
    PRINT BUDGET
    PRINT HEAD FOR ALL LAYERS
    SAVE HEAD FOR ALL LAYERS
    SAVE BUDGET

            WELLS   PERIOD    9   STEP  15
 WELL      1   LAYER   1   ROW     6   COL     4   RATE    -1.00000    
 WELL      2   LAYER   1   ROW     6   COL     5   RATE    -1.00000    
 WELL      3   LAYER   1   ROW     7   COL     4   RATE    -1.00000    
 WELL      4   LAYER   1   ROW     7   COL     5   RATE    -1.00000    
 WELL      5   LAYER   1   ROW     8   COL     4   RATE    -1.00000    
 WELL      6   LAYER   1   ROW     8   COL     5   RATE    -1.00000    
 WELL      7   LAYER   1   ROW     9   COL     4   RATE    -1.00000    
 WELL      8   LAYER   1   ROW     9   COL     5   RATE    -1.00000    
 WELL      9   LAYER   1   ROW    10   COL     4   RATE    -1.00000    
 WELL     10   LAYER   1   ROW    10   COL     5   RATE    -1.00000    

  HEAD DEP BOUNDS   PERIOD    9   STEP  15
 BOUNDARY      1   LAYER   1   ROW    13   COL     1   RATE    0.762041    
 BOUNDARY      2   LAYER   1   ROW    14   COL     9   RATE     2.37191    



 STREAM LISTING     PERIOD      9   STEP       15

 LAYER ROW COL. STREAM  RCH.  FLOW INTO     FLOW TO   FLOW OUT OF   OVRLND.     DIRECT     STREAM       STREAM     STREAM     STREAM   STREAMBED  STREAMBED
                SEG.NO.  NO.  STRM. RCH.    AQUIFER    STRM. RCH.    RUNOFF     PRECIP       ET          HEAD       DEPTH      WIDTH   CONDCTNC.   GRADIENT

   1    1    1     1     1    2.5000E+01  2.4515E-09   2.5000E+01  0.000E+00  0.000E+00  0.000E+00  1.09423E+03  1.178E+00  1.304E+01  5.867E-10  1.393E+00
   1    2    2     1     2    2.5000E+01  3.8085E-09   2.5000E+01  0.000E+00  0.000E+00  0.000E+00  1.08924E+03  1.177E+00  1.302E+01  9.117E-10  1.392E+00
   1    3    3     1     3    2.5000E+01  3.2661E-09   2.5000E+01  0.000E+00  0.000E+00  0.000E+00  1.08360E+03  1.178E+00  1.303E+01  7.818E-10  1.393E+00
   1    3    4     1     4    2.5000E+01  3.0219E-09   2.5000E+01  0.000E+00  0.000E+00  0.000E+00  1.07859E+03  1.178E+00  1.303E+01  7.233E-10  1.393E+00
   1    4    5     2     1    1.5000E+01  3.0290E-01   1.4697E+01  0.000E+00  0.000E+00  0.000E+00  1.07282E+03  8.834E-01  1.200E+01  7.800E-02  1.294E+00
   1    5    6     2     2    1.4697E+01  2.3243E-01   1.4465E+01  0.000E+00  0.000E+00  0.000E+00  1.06738E+03  8.738E-01  1.200E+01  6.000E-02  1.291E+00
   1    6    6     2     3    1.4465E+01  2.3193E-01   1.4233E+01  0.000E+00  0.000E+00  0.000E+00  1.06266E+03  8.654E-01  1.200E+01  6.000E-02  1.288E+00
   1    7    6     2     4    1.4233E+01  2.3142E-01   1.4001E+01  0.000E+00  0.000E+00  0.000E+00  1.05793E+03  8.570E-01  1.200E+01  6.000E-02  1.286E+00
   1    8    6     2     5    1.4001E+01  2.3091E-01   1.3770E+01  0.000E+00  0.000E+00  0.000E+00  1.05321E+03  8.486E-01  1.200E+01  6.000E-02  1.283E+00
   1    3    5     3     1    1.0000E+01  2.8252E-01   9.7175E+00  0.000E+00  0.000E+00  0.000E+00  1.07555E+03  1.909E+00  9.636E+00  7.227E-02  1.955E+00
   1    3    6     3     2    9.7175E+00  2.4905E-01   9.4684E+00  0.000E+00  0.000E+00  0.000E+00  1.07264E+03  1.727E+00  8.909E+00  6.682E-02  1.864E+00
   1    3    7     3     3    9.4684E+00  1.9718E-01   9.2712E+00  0.000E+00  0.000E+00  0.000E+00  1.06987E+03  1.555E+00  8.218E+00  5.547E-02  1.777E+00
   1    4    8     3     4    9.2712E+00  2.2567E-01   9.0456E+00  0.000E+00  0.000E+00  0.000E+00  1.06682E+03  1.364E+00  7.455E+00  6.709E-02  1.682E+00
   1    5    8     3     5    9.0456E+00  1.5790E-01   8.8877E+00  0.000E+00  0.000E+00  0.000E+00  1.06362E+03  1.164E+00  6.655E+00  4.991E-02  1.582E+00
   1    6    8     3     6    8.8877E+00  5.5980E-02   8.8317E+00  0.000E+00  0.000E+00  0.000E+00  1.06158E+03  1.036E+00  6.145E+00  1.844E-02  1.518E+00
   1    5   10     4     1    1.0000E+01  9.0919E-02   9.9091E+00  0.000E+00  0.000E+00  0.000E+00  1.07836E+03  6.368E-01  1.000E+01  2.500E-02  1.212E+00
   1    5    9     4     2    9.9091E+00  1.8158E-01   9.7275E+00  0.000E+00  0.000E+00  0.000E+00  1.07154E+03  6.315E-01  1.000E+01  5.000E-02  1.211E+00
   1    6    8     4     3    9.7275E+00  1.2689E-01   9.6006E+00  0.000E+00  0.000E+00  0.000E+00  1.06381E+03  6.256E-01  1.000E+01  3.500E-02  1.209E+00
   1    6    8     5     1    1.8432E+01  3.3262E-09   1.8432E+01  0.000E+00  0.000E+00  0.000E+00  1.05883E+03  8.293E-01  2.172E+01  8.686E-10  1.276E+00
   1    7    7     5     2    1.8432E+01  4.1514E-09   1.8432E+01  0.000E+00  0.000E+00  0.000E+00  1.05433E+03  8.286E-01  2.169E+01  1.084E-09  1.276E+00
   1    8    7     5     3    1.8432E+01  2.9126E-09   1.8432E+01  0.000E+00  0.000E+00  0.000E+00  1.05008E+03  8.296E-01  2.173E+01  7.606E-10  1.277E+00
   1    8    6     5     4    1.8432E+01  2.0836E-09   1.8432E+01  0.000E+00  0.000E+00  0.000E+00  1.04708E+03  8.303E-01  2.176E+01  5.440E-10  1.277E+00
   1    9    6     6     1    3.2203E+01  2.6507E-01   3.1938E+01  0.000E+00  0.000E+00  0.000E+00  1.04415E+03  1.418E+00  1.200E+01  6.000E-02  1.473E+00
   1   10    7     6     2    3.1938E+01  2.6465E-01   3.1673E+01  0.000E+00  0.000E+00  0.000E+00  1.03959E+03  1.411E+00  1.200E+01  6.000E-02  1.470E+00
   1   11    7     6     3    3.1673E+01  2.6423E-01   3.1409E+01  0.000E+00  0.000E+00  0.000E+00  1.03504E+03  1.404E+00  1.200E+01  6.000E-02  1.468E+00
   1   12    7     6     4    3.1409E+01  2.6380E-01   3.1145E+01  0.000E+00  0.000E+00  0.000E+00  1.03049E+03  1.397E+00  1.200E+01  6.000E-02  1.466E+00
   1   13    7     6     5    3.1145E+01  1.0540E-01   3.1040E+01  0.000E+00  0.000E+00  0.000E+00  1.02730E+03  1.392E+00  1.200E+01  2.400E-02  1.464E+00
   1   14    9     7     1    1.5000E+02  2.9539E-14   1.5000E+02  0.000E+00  0.000E+00  0.000E+00  1.03986E+03  2.283E+00  5.528E+01  5.591E-15  1.761E+00
   1   13    8     7     2    1.5000E+02  3.2486E-13   1.5000E+02  0.000E+00  0.000E+00  0.000E+00  1.03478E+03  2.283E+00  5.527E+01  6.150E-14  1.761E+00
   1   13    7     7     3    1.5000E+02  2.9539E-14   1.5000E+02  0.000E+00  0.000E+00  0.000E+00  1.02970E+03  2.283E+00  5.528E+01  5.591E-15  1.761E+00
   1   13    6     8     1    1.8104E+02  0.0000E+00   1.8104E+02  0.000E+00  0.000E+00  0.000E+00  1.02490E+03  3.023E+00  4.383E+01  0.000E+00  2.008E+00
   1   13    5     8     2    1.8104E+02  2.6787E-12   1.8104E+02  0.000E+00  0.000E+00  0.000E+00  1.01864E+03  3.014E+00  4.371E+01  4.454E-13  2.005E+00
   1   13    4     8     3    1.8104E+02  2.6787E-12   1.8104E+02  0.000E+00  0.000E+00  0.000E+00  1.01239E+03  3.014E+00  4.371E+01  4.454E-13  2.005E+00
   1   13    3     8     4    1.8104E+02  2.6787E-12   1.8104E+02  0.000E+00  0.000E+00  0.000E+00  1.00614E+03  3.014E+00  4.371E+01  4.454E-13  2.005E+00
   1   13    2     8     5    1.8104E+02  2.6787E-12   1.8104E+02  0.000E+00  0.000E+00  0.000E+00  9.99889E+02  3.014E+00  4.371E+01  4.454E-13  2.005E+00
   1   13    1     8     6    1.8104E+02  1.6099E-08   1.8104E+02  0.000E+00  0.000E+00  0.000E+00  9.94893E+02  3.018E+00  4.376E+01  2.675E-09  2.006E+00



 UBDSV3 SAVING "     NETRECHARGE" ON UNIT 100 AT TIME STEP 15, STRESS PERIOD   9
 UBDSV3 SAVING "    NETDISCHARGE" ON UNIT 101 AT TIME STEP 15, STRESS PERIOD   9
 UBDSV3 SAVING "           GW ET" ON UNIT  61 AT TIME STEP 15, STRESS PERIOD   9
 UBDSV3 SAVING "    UZF RECHARGE" ON UNIT  61 AT TIME STEP 15, STRESS PERIOD   9
 UBDSV3 SAVING " SURFACE LEAKAGE" ON UNIT  61 AT TIME STEP 15, STRESS PERIOD   9
 UBDSV3 SAVING "       HORT+DUNN" ON UNIT  61 AT TIME STEP 15, STRESS PERIOD   9
 UBDSV3 SAVING "  STORAGE CHANGE" ON UNIT  61 AT TIME STEP 15, STRESS PERIOD   9


UNSATURATED ZONE PACKAGE VOLUMETRIC BUDGET FOR  TIME STEP    15 STRESS PERIOD    9
  ------------------------------------------------------------------------------



     CUMULATIVE VOLUMES      L**3       RATES FOR THIS TIME STEP      L**3/T
     ------------------                 ------------------------

           IN:                                      IN:
           ---                                      ---
        INFILTRATION =    68590793.4297          INFILTRATION =           2.9000

          OUT:                                     OUT:
          ----                                     ----
              UZF ET =    20151979.6511                UZF ET =           1.1749
        UZF RECHARGE =     7621246.6355          UZF RECHARGE =       0.0000E+00

            IN - OUT =    40817567.1431              IN - OUT =           1.7251

          STORAGE:                                 STORAGE:
          --------                                 --------
      STORAGE CHANGE =    40817567.0155        STORAGE CHANGE =           1.7251

 PERCENT DISCREPANCY IS DIFFERENCE BETWEEN IN-OUT MINUS CHANGE IN STORAGE
 DIVIDED BY THE AVERAGE OF IN AND OUT TIMES 100

 PERCENT DISCREPANCY =           0.00     PERCENT DISCREPANCY =           0.00






1
              HEAD IN LAYER   1 AT END OF TIME STEP  15 IN STRESS PERIOD    9
  ---------------------------------------------------------------------------

           1       2       3       4       5       6       7       8       9      10
 ...................................................................................
   1  1003.31 1000.45 6999.00 6999.00 6999.00 6999.00 6999.00 6999.00 6999.00 6999.00
   2  1000.89  958.78  958.20 6999.00 6999.00  964.36  964.84  965.22 6999.00 6999.00
   3  6999.00  957.90  957.20  956.91  957.90  959.41  960.70  961.55 6999.00 6999.00
   4   959.03  957.50  956.51  956.04  956.33  956.78  958.14  960.64  961.96 6999.00
   5   958.67  956.64  955.27  954.68  955.10  956.00  956.87  958.03  959.66  964.22
   6   958.29  955.93  953.91  953.05  953.61  955.15  956.30  957.40  958.95  972.16
   7   958.05  955.51  953.08  952.13  952.84  954.56  955.84  956.88  960.73 6999.00
   8  6999.00  955.61  952.97  951.96  952.75  954.46  955.70  957.35  962.29 6999.00
   9  6999.00  956.26  953.74  952.74  953.45  955.05  956.33  958.33  963.41 6999.00
  10  6999.00  957.54  955.33  954.32  954.81  956.20  957.50  959.60  963.69  967.28
  11  6999.00  959.46  957.71  956.65  956.96  957.92  959.27  961.57  965.83 6999.00
  12   965.90  961.53  959.53  958.60  958.73  959.63  961.12  964.60  970.81 6999.00
  13   967.95  962.79  960.65  959.82  959.92  961.00  963.35  967.83  976.56 6999.00
  14  6999.00  963.92  961.43  961.12  961.49  962.96  966.31  973.51  982.58 6999.00
  15  6999.00 6999.00  965.44  965.44  965.73  966.25 6999.00 6999.00 6999.00 6999.00

 HEAD WILL BE SAVED ON UNIT   58 AT END OF TIME STEP   15, STRESS PERIOD    9
1
  VOLUMETRIC BUDGET FOR ENTIRE MODEL AT END OF TIME STEP   15, STRESS PERIOD   9
  ------------------------------------------------------------------------------

     CUMULATIVE VOLUMES      L**3       RATES FOR THIS TIME STEP      L**3/T
     ------------------                 ------------------------

           IN:                                      IN:
           ---                                      ---
             STORAGE =   422589824.0000               STORAGE =           5.8892
       CONSTANT HEAD =           0.0000         CONSTANT HEAD =           0.0000
               WELLS =           0.0000                 WELLS =           0.0000
     HEAD DEP BOUNDS =    74012744.0000       HEAD DEP BOUNDS =           3.1340
      STREAM LEAKAGE =    93826088.0000        STREAM LEAKAGE =           3.9604
        UZF RECHARGE =     7621252.0000          UZF RECHARGE =           0.0000
               GW ET =           0.0000                 GW ET =           0.0000
     SURFACE LEAKAGE =           0.0000       SURFACE LEAKAGE =           0.0000

            TOTAL IN =   598049920.0000              TOTAL IN =          12.9836

          OUT:                                     OUT:
          ----                                     ----
             STORAGE =    98742568.0000               STORAGE =           2.9837
       CONSTANT HEAD =           0.0000         CONSTANT HEAD =           0.0000
               WELLS =   499320032.0000                 WELLS =          10.0000
     HEAD DEP BOUNDS =           0.0000       HEAD DEP BOUNDS =           0.0000
      STREAM LEAKAGE =           0.0000        STREAM LEAKAGE =           0.0000
        UZF RECHARGE =           0.0000          UZF RECHARGE =           0.0000
               GW ET =           0.0000                 GW ET =           0.0000
     SURFACE LEAKAGE =           0.0000       SURFACE LEAKAGE =           0.0000

           TOTAL OUT =   598062592.0000             TOTAL OUT =          12.9837

            IN - OUT =      -12672.0000              IN - OUT =      -1.4305E-04

 PERCENT DISCREPANCY =          -0.00     PERCENT DISCREPANCY =          -0.00






         TIME SUMMARY AT END OF TIME STEP   15 IN STRESS PERIOD    9
                    SECONDS     MINUTES      HOURS       DAYS        YEARS
                    -----------------------------------------------------------
   TIME STEP LENGTH 3.14103E+05  5235.0      87.251      3.6354     9.95332E-03
 STRESS PERIOD TIME 2.62800E+06  43800.      730.00      30.417     8.32763E-02
         TOTAL TIME 2.36520E+07 3.94200E+05  6570.0      273.75     0.74949    
1
1
                            STRESS PERIOD NO.   10, LENGTH =   2628000.    
                            -----------------------------------------------

                              NUMBER OF TIME STEPS =    15

                               MULTIPLIER FOR DELT =     1.100

                            INITIAL TIME STEP SIZE =   82713.07    

      0 WELLS

 REUSING NON-PARAMETER GHB CELLS FROM LAST STRESS PERIOD

      2 GHB CELLS

 REUSING STREAM SEGMENT DATA FROM LAST STRESS PERIOD



            AREAL INFILTRATION RATE
 READING ON UNIT   19 WITH FORMAT: (10F4.0)            

            1           2           3           4           5           6           7           8           9          10
 ........................................................................................................................
   1   2.0000E-09  4.0000E-09   0.000       0.000       0.000       0.000       0.000       0.000       0.000       0.000    
   2   4.0000E-09  2.0000E-09  4.0000E-09   0.000       0.000      1.6000E-08  1.6000E-08  1.0000E-08   0.000       0.000    
   3    0.000      1.0000E-08  2.0000E-09  2.0000E-09  1.6000E-08  1.6000E-08  1.0000E-08  1.0000E-08   0.000       0.000    
   4   1.6000E-08  1.0000E-08  2.0000E-09  2.0000E-09  2.0000E-09  2.0000E-09  2.0000E-09  2.0000E-09  4.0000E-09   0.000    
   5   1.6000E-08  1.0000E-08  2.0000E-09  2.0000E-09  2.0000E-09  2.0000E-09  2.0000E-09  2.0000E-09  2.0000E-09  2.0000E-09
   6   1.6000E-08  1.0000E-08  1.0000E-08  4.0000E-09  4.0000E-09  2.0000E-09  2.0000E-09  2.0000E-09  2.0000E-09  1.0000E-08
   7   1.6000E-08  1.0000E-08  1.0000E-08  4.0000E-09  4.0000E-09  2.0000E-09  2.0000E-09  4.0000E-09  4.0000E-09   0.000    
   8    0.000      1.0000E-08  1.0000E-08  4.0000E-09  4.0000E-09  2.0000E-09  2.0000E-09  4.0000E-09  1.0000E-08   0.000    
   9    0.000      1.0000E-08  1.0000E-08  4.0000E-09  4.0000E-09  2.0000E-09  2.0000E-09  4.0000E-09  1.0000E-08   0.000    
  10    0.000      1.0000E-08  1.0000E-08  4.0000E-09  4.0000E-09  2.0000E-09  2.0000E-09  4.0000E-09  1.0000E-08  1.6000E-08
  11    0.000      2.0000E-09  2.0000E-09  2.0000E-09  2.0000E-09  2.0000E-09  2.0000E-09  4.0000E-09  1.0000E-08   0.000    
  12   2.0000E-09  2.0000E-09  2.0000E-09  2.0000E-09  2.0000E-09  2.0000E-09  2.0000E-09  2.0000E-09  4.0000E-09   0.000    
  13   2.0000E-09  2.0000E-09  4.0000E-09  4.0000E-09  4.0000E-09  4.0000E-09  4.0000E-09  2.0000E-09  2.0000E-09   0.000    
  14    0.000      4.0000E-09  1.0000E-08  1.0000E-08  1.0000E-08  1.0000E-08  1.0000E-08  4.0000E-09  2.0000E-09   0.000    
  15    0.000       0.000      1.6000E-08  1.6000E-08  1.6000E-08  1.6000E-08   0.000       0.000       0.000       0.000    

USING ET RATE FROM PREVIOUS STRESS PERIOD. CURRENT PERIOD IS:      10

 USING ET EXTINCTION DEPTH FROM PREVIOUS STRESS PERIOD. CURRENT PERIOD IS:      10

 USING EXTINCTION WATER CONTENT FROM PREVIOUS STRESS PERIOD. CURRENT PERIOD IS:      10
 
 SOLVING FOR HEAD 
                                                   Max.-Head-Change                         Max.-Flux-Residual
  Residual-Control   Outer-Iter.   Inner-Iter.     Column Row Layer    Maximum-Head-Change  Column Row Layer    Maximum-Flux-Residual          L2-NORM 
          0                 1           2             4    8     1       0.2469215553E-01       4    8    1         0.1365480830E+01      0.3906195854E+01
          0                 2           2             4    8     1      -0.2446774239E-02       4    8    1        -0.1365485001E+00      0.3906202442E+00
          0                 3           2             4    8     1       0.2182095806E-03       4    8    1         0.1228936245E-01      0.3515581988E-01
          0                 4           1             4    8     1      -0.1731998892E-04       4    8    1        -0.9843782082E-03      0.2815981944E-02

    ------------------------------------------------
       NWT REQUIRED            4 OUTER ITERATIONS 
       AND A TOTAL OF          7 INNER ITERATIONS.
    ------------------------------------------------

 NO OUTPUT CONTROL FOR STRESS PERIOD   10   TIME STEP    1
 
 SOLVING FOR HEAD 
                                                   Max.-Head-Change                         Max.-Flux-Residual
  Residual-Control   Outer-Iter.   Inner-Iter.     Column Row Layer    Maximum-Head-Change  Column Row Layer    Maximum-Flux-Residual          L2-NORM 
          0                 1           2             4    8     1       0.2701836338E-01       4    8    1         0.1359008621E+01      0.3870198675E+01
          0                 2           2             4    8     1      -0.2677282020E-02       4    8    1        -0.1359013499E+00      0.3870206194E+00
          0                 3           2             4    8     1       0.2387668418E-03       4    8    1         0.1223111821E-01      0.3483185269E-01
          0                 4           1             4    8     1      -0.1895168427E-04       4    8    1        -0.9797128491E-03      0.2790032155E-02

    ------------------------------------------------
       NWT REQUIRED            4 OUTER ITERATIONS 
       AND A TOTAL OF          7 INNER ITERATIONS.
    ------------------------------------------------

 NO OUTPUT CONTROL FOR STRESS PERIOD   10   TIME STEP    2
 
 SOLVING FOR HEAD 
                                                   Max.-Head-Change                         Max.-Flux-Residual
  Residual-Control   Outer-Iter.   Inner-Iter.     Column Row Layer    Maximum-Head-Change  Column Row Layer    Maximum-Flux-Residual          L2-NORM 
          0                 1           2             4    8     1       0.2954622201E-01       4    8    1         0.1351850146E+01      0.3831277808E+01
          0                 2           2             4    8     1      -0.2927772085E-02       4    8    1        -0.1351855869E+00      0.3831286444E+00
          0                 3           2             4    8     1       0.2611061704E-03       4    8    1         0.1216669871E-01      0.3448157379E-01
          0                 4           1             4    8     1      -0.2072482795E-04       4    8    1        -0.9745528582E-03      0.2761974832E-02

    ------------------------------------------------
       NWT REQUIRED            4 OUTER ITERATIONS 
       AND A TOTAL OF          7 INNER ITERATIONS.
    ------------------------------------------------

 NO OUTPUT CONTROL FOR STRESS PERIOD   10   TIME STEP    3
 
 SOLVING FOR HEAD 
                                                   Max.-Head-Change                         Max.-Flux-Residual
  Residual-Control   Outer-Iter.   Inner-Iter.     Column Row Layer    Maximum-Head-Change  Column Row Layer    Maximum-Flux-Residual          L2-NORM 
          0                 1           2             4    8     1       0.3228944107E-01       4    8    1         0.1343942753E+01      0.3789941925E+01
          0                 2           2             4    8     1      -0.3199603106E-02       4    8    1        -0.1343949491E+00      0.3789951877E+00
          0                 3           2             4    8     1       0.2853487328E-03       4    8    1         0.1209554029E-01      0.3410956136E-01
          0                 4           1             4    8     1      -0.2264903782E-04       4    8    1        -0.9688530849E-03      0.2732176653E-02

    ------------------------------------------------
       NWT REQUIRED            4 OUTER ITERATIONS 
       AND A TOTAL OF          7 INNER ITERATIONS.
    ------------------------------------------------

 NO OUTPUT CONTROL FOR STRESS PERIOD   10   TIME STEP    4
 
 SOLVING FOR HEAD 
                                                   Max.-Head-Change                         Max.-Flux-Residual
  Residual-Control   Outer-Iter.   Inner-Iter.     Column Row Layer    Maximum-Head-Change  Column Row Layer    Maximum-Flux-Residual          L2-NORM 
          0                 1           2             4    8     1       0.3526117106E-01       4    8    1         0.1335193407E+01      0.3746121147E+01
          0                 2           2             4    8     1      -0.3494078397E-02       4    8    1        -0.1335201366E+00      0.3746132650E+00
          0                 3           2             4    8     1       0.3116107609E-03       4    8    1         0.1201680597E-01      0.3371518675E-01
          0                 4           1             4    8     1      -0.2473353849E-04       4    8    1        -0.9625464663E-03      0.2700587236E-02

    ------------------------------------------------
       NWT REQUIRED            4 OUTER ITERATIONS 
       AND A TOTAL OF          7 INNER ITERATIONS.
    ------------------------------------------------

 OUTPUT CONTROL FOR STRESS PERIOD   10   TIME STEP    5
    PRINT BUDGET
    SAVE BUDGET

  HEAD DEP BOUNDS   PERIOD   10   STEP   5
 BOUNDARY      1   LAYER   1   ROW    13   COL     1   RATE    0.762163    
 BOUNDARY      2   LAYER   1   ROW    14   COL     9   RATE     2.37202    



 STREAM LISTING     PERIOD     10   STEP        5

 LAYER ROW COL. STREAM  RCH.  FLOW INTO     FLOW TO   FLOW OUT OF   OVRLND.     DIRECT     STREAM       STREAM     STREAM     STREAM   STREAMBED  STREAMBED
                SEG.NO.  NO.  STRM. RCH.    AQUIFER    STRM. RCH.    RUNOFF     PRECIP       ET          HEAD       DEPTH      WIDTH   CONDCTNC.   GRADIENT

   1    1    1     1     1    2.5000E+01  2.4515E-09   2.5000E+01  0.000E+00  0.000E+00  0.000E+00  1.09423E+03  1.178E+00  1.304E+01  5.867E-10  1.393E+00
   1    2    2     1     2    2.5000E+01  3.8085E-09   2.5000E+01  0.000E+00  0.000E+00  0.000E+00  1.08924E+03  1.177E+00  1.302E+01  9.117E-10  1.392E+00
   1    3    3     1     3    2.5000E+01  3.2661E-09   2.5000E+01  0.000E+00  0.000E+00  0.000E+00  1.08360E+03  1.178E+00  1.303E+01  7.818E-10  1.393E+00
   1    3    4     1     4    2.5000E+01  3.0219E-09   2.5000E+01  0.000E+00  0.000E+00  0.000E+00  1.07859E+03  1.178E+00  1.303E+01  7.233E-10  1.393E+00
   1    4    5     2     1    1.5000E+01  3.0290E-01   1.4697E+01  0.000E+00  0.000E+00  0.000E+00  1.07282E+03  8.834E-01  1.200E+01  7.800E-02  1.294E+00
   1    5    6     2     2    1.4697E+01  2.3243E-01   1.4465E+01  0.000E+00  0.000E+00  0.000E+00  1.06738E+03  8.738E-01  1.200E+01  6.000E-02  1.291E+00
   1    6    6     2     3    1.4465E+01  2.3193E-01   1.4233E+01  0.000E+00  0.000E+00  0.000E+00  1.06266E+03  8.654E-01  1.200E+01  6.000E-02  1.288E+00
   1    7    6     2     4    1.4233E+01  2.3142E-01   1.4001E+01  0.000E+00  0.000E+00  0.000E+00  1.05793E+03  8.570E-01  1.200E+01  6.000E-02  1.286E+00
   1    8    6     2     5    1.4001E+01  2.3091E-01   1.3770E+01  0.000E+00  0.000E+00  0.000E+00  1.05321E+03  8.486E-01  1.200E+01  6.000E-02  1.283E+00
   1    3    5     3     1    1.0000E+01  2.8252E-01   9.7175E+00  0.000E+00  0.000E+00  0.000E+00  1.07555E+03  1.909E+00  9.636E+00  7.227E-02  1.955E+00
   1    3    6     3     2    9.7175E+00  2.4905E-01   9.4684E+00  0.000E+00  0.000E+00  0.000E+00  1.07264E+03  1.727E+00  8.909E+00  6.682E-02  1.864E+00
   1    3    7     3     3    9.4684E+00  1.9718E-01   9.2712E+00  0.000E+00  0.000E+00  0.000E+00  1.06987E+03  1.555E+00  8.218E+00  5.547E-02  1.777E+00
   1    4    8     3     4    9.2712E+00  2.2567E-01   9.0456E+00  0.000E+00  0.000E+00  0.000E+00  1.06682E+03  1.364E+00  7.455E+00  6.709E-02  1.682E+00
   1    5    8     3     5    9.0456E+00  1.5790E-01   8.8877E+00  0.000E+00  0.000E+00  0.000E+00  1.06362E+03  1.164E+00  6.655E+00  4.991E-02  1.582E+00
   1    6    8     3     6    8.8877E+00  5.5980E-02   8.8317E+00  0.000E+00  0.000E+00  0.000E+00  1.06158E+03  1.036E+00  6.145E+00  1.844E-02  1.518E+00
   1    5   10     4     1    1.0000E+01  9.0919E-02   9.9091E+00  0.000E+00  0.000E+00  0.000E+00  1.07836E+03  6.368E-01  1.000E+01  2.500E-02  1.212E+00
   1    5    9     4     2    9.9091E+00  1.8158E-01   9.7275E+00  0.000E+00  0.000E+00  0.000E+00  1.07154E+03  6.315E-01  1.000E+01  5.000E-02  1.211E+00
   1    6    8     4     3    9.7275E+00  1.2689E-01   9.6006E+00  0.000E+00  0.000E+00  0.000E+00  1.06381E+03  6.256E-01  1.000E+01  3.500E-02  1.209E+00
   1    6    8     5     1    1.8432E+01  3.3262E-09   1.8432E+01  0.000E+00  0.000E+00  0.000E+00  1.05883E+03  8.293E-01  2.172E+01  8.686E-10  1.276E+00
   1    7    7     5     2    1.8432E+01  4.1514E-09   1.8432E+01  0.000E+00  0.000E+00  0.000E+00  1.05433E+03  8.286E-01  2.169E+01  1.084E-09  1.276E+00
   1    8    7     5     3    1.8432E+01  2.9126E-09   1.8432E+01  0.000E+00  0.000E+00  0.000E+00  1.05008E+03  8.296E-01  2.173E+01  7.606E-10  1.277E+00
   1    8    6     5     4    1.8432E+01  2.0836E-09   1.8432E+01  0.000E+00  0.000E+00  0.000E+00  1.04708E+03  8.303E-01  2.176E+01  5.440E-10  1.277E+00
   1    9    6     6     1    3.2203E+01  2.6507E-01   3.1938E+01  0.000E+00  0.000E+00  0.000E+00  1.04415E+03  1.418E+00  1.200E+01  6.000E-02  1.473E+00
   1   10    7     6     2    3.1938E+01  2.6465E-01   3.1673E+01  0.000E+00  0.000E+00  0.000E+00  1.03959E+03  1.411E+00  1.200E+01  6.000E-02  1.470E+00
   1   11    7     6     3    3.1673E+01  2.6423E-01   3.1409E+01  0.000E+00  0.000E+00  0.000E+00  1.03504E+03  1.404E+00  1.200E+01  6.000E-02  1.468E+00
   1   12    7     6     4    3.1409E+01  2.6380E-01   3.1145E+01  0.000E+00  0.000E+00  0.000E+00  1.03049E+03  1.397E+00  1.200E+01  6.000E-02  1.466E+00
   1   13    7     6     5    3.1145E+01  1.0540E-01   3.1040E+01  0.000E+00  0.000E+00  0.000E+00  1.02730E+03  1.392E+00  1.200E+01  2.400E-02  1.464E+00
   1   14    9     7     1    1.5000E+02  2.9539E-14   1.5000E+02  0.000E+00  0.000E+00  0.000E+00  1.03986E+03  2.283E+00  5.528E+01  5.591E-15  1.761E+00
   1   13    8     7     2    1.5000E+02  3.2486E-13   1.5000E+02  0.000E+00  0.000E+00  0.000E+00  1.03478E+03  2.283E+00  5.527E+01  6.150E-14  1.761E+00
   1   13    7     7     3    1.5000E+02  2.9539E-14   1.5000E+02  0.000E+00  0.000E+00  0.000E+00  1.02970E+03  2.283E+00  5.528E+01  5.591E-15  1.761E+00
   1   13    6     8     1    1.8104E+02  0.0000E+00   1.8104E+02  0.000E+00  0.000E+00  0.000E+00  1.02490E+03  3.023E+00  4.383E+01  0.000E+00  2.008E+00
   1   13    5     8     2    1.8104E+02  2.6787E-12   1.8104E+02  0.000E+00  0.000E+00  0.000E+00  1.01864E+03  3.014E+00  4.371E+01  4.454E-13  2.005E+00
   1   13    4     8     3    1.8104E+02  2.6787E-12   1.8104E+02  0.000E+00  0.000E+00  0.000E+00  1.01239E+03  3.014E+00  4.371E+01  4.454E-13  2.005E+00
   1   13    3     8     4    1.8104E+02  2.6787E-12   1.8104E+02  0.000E+00  0.000E+00  0.000E+00  1.00614E+03  3.014E+00  4.371E+01  4.454E-13  2.005E+00
   1   13    2     8     5    1.8104E+02  2.6787E-12   1.8104E+02  0.000E+00  0.000E+00  0.000E+00  9.99889E+02  3.014E+00  4.371E+01  4.454E-13  2.005E+00
   1   13    1     8     6    1.8104E+02  1.6099E-08   1.8104E+02  0.000E+00  0.000E+00  0.000E+00  9.94893E+02  3.018E+00  4.376E+01  2.675E-09  2.006E+00



 UBDSV3 SAVING "     NETRECHARGE" ON UNIT 100 AT TIME STEP  5, STRESS PERIOD  10
 UBDSV3 SAVING "    NETDISCHARGE" ON UNIT 101 AT TIME STEP  5, STRESS PERIOD  10
 UBDSV3 SAVING "           GW ET" ON UNIT  61 AT TIME STEP  5, STRESS PERIOD  10
 UBDSV3 SAVING "    UZF RECHARGE" ON UNIT  61 AT TIME STEP  5, STRESS PERIOD  10
 UBDSV3 SAVING " SURFACE LEAKAGE" ON UNIT  61 AT TIME STEP  5, STRESS PERIOD  10
 UBDSV3 SAVING "       HORT+DUNN" ON UNIT  61 AT TIME STEP  5, STRESS PERIOD  10
 UBDSV3 SAVING "  STORAGE CHANGE" ON UNIT  61 AT TIME STEP  5, STRESS PERIOD  10


UNSATURATED ZONE PACKAGE VOLUMETRIC BUDGET FOR  TIME STEP     5 STRESS PERIOD   10
  ------------------------------------------------------------------------------



     CUMULATIVE VOLUMES      L**3       RATES FOR THIS TIME STEP      L**3/T
     ------------------                 ------------------------

           IN:                                      IN:
           ---                                      ---
        INFILTRATION =    70055210.9893          INFILTRATION =           2.9000

          OUT:                                     OUT:
          ----                                     ----
              UZF ET =    20743711.0820                UZF ET =           1.1723
        UZF RECHARGE =     7621246.6355          UZF RECHARGE =       0.0000E+00

            IN - OUT =    41690253.2717              IN - OUT =           1.7277

          STORAGE:                                 STORAGE:
          --------                                 --------
      STORAGE CHANGE =    41690253.1244        STORAGE CHANGE =           1.7277

 PERCENT DISCREPANCY IS DIFFERENCE BETWEEN IN-OUT MINUS CHANGE IN STORAGE
 DIVIDED BY THE AVERAGE OF IN AND OUT TIMES 100

 PERCENT DISCREPANCY =           0.00     PERCENT DISCREPANCY =           0.00






1
  VOLUMETRIC BUDGET FOR ENTIRE MODEL AT END OF TIME STEP    5, STRESS PERIOD  10
  ------------------------------------------------------------------------------

     CUMULATIVE VOLUMES      L**3       RATES FOR THIS TIME STEP      L**3/T
     ------------------                 ------------------------

           IN:                                      IN:
           ---                                      ---
             STORAGE =   425513024.0000               STORAGE =           5.7251
       CONSTANT HEAD =           0.0000         CONSTANT HEAD =           0.0000
               WELLS =           0.0000                 WELLS =           0.0000
     HEAD DEP BOUNDS =    75595368.0000       HEAD DEP BOUNDS =           3.1342
      STREAM LEAKAGE =    95829280.0000        STREAM LEAKAGE =           3.9604
        UZF RECHARGE =     7621252.0000          UZF RECHARGE =           0.0000
               GW ET =           0.0000                 GW ET =           0.0000
     SURFACE LEAKAGE =           0.0000       SURFACE LEAKAGE =           0.0000

            TOTAL IN =   604558912.0000              TOTAL IN =          12.8197

          OUT:                                     OUT:
          ----                                     ----
             STORAGE =   105251392.0000               STORAGE =          12.8193
       CONSTANT HEAD =           0.0000         CONSTANT HEAD =           0.0000
               WELLS =   499320032.0000                 WELLS =           0.0000
     HEAD DEP BOUNDS =           0.0000       HEAD DEP BOUNDS =           0.0000
      STREAM LEAKAGE =           0.0000        STREAM LEAKAGE =           0.0000
        UZF RECHARGE =           0.0000          UZF RECHARGE =           0.0000
               GW ET =           0.0000                 GW ET =           0.0000
     SURFACE LEAKAGE =           0.0000       SURFACE LEAKAGE =           0.0000

           TOTAL OUT =   604571392.0000             TOTAL OUT =          12.8193

            IN - OUT =      -12480.0000              IN - OUT =       3.6430E-04

 PERCENT DISCREPANCY =          -0.00     PERCENT DISCREPANCY =           0.00






         TIME SUMMARY AT END OF TIME STEP    5 IN STRESS PERIOD   10
                    SECONDS     MINUTES      HOURS       DAYS        YEARS
                    -----------------------------------------------------------
   TIME STEP LENGTH 1.21100E+05  2018.3      33.639      1.4016     3.83743E-03
 STRESS PERIOD TIME 5.04972E+05  8416.2      140.27      5.8446     1.60016E-02
         TOTAL TIME 2.41570E+07 4.02616E+05  6710.3      279.59     0.76549    
1
 
 SOLVING FOR HEAD 
                                                   Max.-Head-Change                         Max.-Flux-Residual
  Residual-Control   Outer-Iter.   Inner-Iter.     Column Row Layer    Maximum-Head-Change  Column Row Layer    Maximum-Flux-Residual          L2-NORM 
          0                 1           2             4    8     1       0.3847490632E-01       4    8    1         0.1325531122E+01      0.3699776054E+01
          0                 2           2             4    8     1      -0.3812535416E-02       4    8    1        -0.1325540550E+00      0.3699789376E+00
          0                 3           2             4    8     1       0.3400115294E-03       4    8    1         0.1192985717E-01      0.3329809543E-01
          0                 4           1             4    8     1      -0.2698779828E-04       4    8    1        -0.9555818729E-03      0.2667178224E-02

    ------------------------------------------------
       NWT REQUIRED            4 OUTER ITERATIONS 
       AND A TOTAL OF          7 INNER ITERATIONS.
    ------------------------------------------------

 NO OUTPUT CONTROL FOR STRESS PERIOD   10   TIME STEP    6
 
 SOLVING FOR HEAD 
                                                   Max.-Head-Change                         Max.-Flux-Residual
  Residual-Control   Outer-Iter.   Inner-Iter.     Column Row Layer    Maximum-Head-Change  Column Row Layer    Maximum-Flux-Residual          L2-NORM 
          0                 1           2             4    8     1       0.4194285246E-01       4    8    1         0.1314852578E+01      0.3650855556E+01
          0                 2           2             4    8     1      -0.4156184006E-02       4    8    1        -0.1314863772E+00      0.3650871010E+00
          0                 3           2             4    8     1       0.3706589318E-03       4    8    1         0.1183376444E-01      0.3285782800E-01
          0                 4           1             4    8     1      -0.2942038070E-04       4    8    1        -0.9478848551E-03      0.2631912803E-02

    ------------------------------------------------
       NWT REQUIRED            4 OUTER ITERATIONS 
       AND A TOTAL OF          7 INNER ITERATIONS.
    ------------------------------------------------

 NO OUTPUT CONTROL FOR STRESS PERIOD   10   TIME STEP    7
 
 SOLVING FOR HEAD 
                                                   Max.-Head-Change                         Max.-Flux-Residual
  Residual-Control   Outer-Iter.   Inner-Iter.     Column Row Layer    Maximum-Head-Change  Column Row Layer    Maximum-Flux-Residual          L2-NORM 
          0                 1           2             4    8     1       0.4567639272E-01       4    8    1         0.1303059326E+01      0.3599328873E+01
          0                 2           2             4    8     1      -0.4526152641E-02       4    8    1        -0.1303072644E+00      0.3599346811E+00
          0                 3           2             4    8     1       0.4036536022E-03       4    8    1         0.1172764217E-01      0.3239410770E-01
          0                 4           1             4    8     1      -0.3203927325E-04       4    8    1        -0.9393844757E-03      0.2594768814E-02

    ------------------------------------------------
       NWT REQUIRED            4 OUTER ITERATIONS 
       AND A TOTAL OF          7 INNER ITERATIONS.
    ------------------------------------------------

 NO OUTPUT CONTROL FOR STRESS PERIOD   10   TIME STEP    8
 
 SOLVING FOR HEAD 
                                                   Max.-Head-Change                         Max.-Flux-Residual
  Residual-Control   Outer-Iter.   Inner-Iter.     Column Row Layer    Maximum-Head-Change  Column Row Layer    Maximum-Flux-Residual          L2-NORM 
          0                 1           2             4    8     1       0.4968549345E-01       4    8    1         0.1290050564E+01      0.3545169591E+01
          0                 2           2             4    8     1      -0.4923429537E-02       4    8    1        -0.1290066433E+00      0.3545190412E+00
          0                 3           2             4    8     1       0.4390836678E-03       4    8    1         0.1161058377E-01      0.3190669723E-01
          0                 4           1             4    8     1      -0.3485147112E-04       4    8    1        -0.9300081229E-03      0.2555727263E-02

    ------------------------------------------------
       NWT REQUIRED            4 OUTER ITERATIONS 
       AND A TOTAL OF          7 INNER ITERATIONS.
    ------------------------------------------------

 NO OUTPUT CONTROL FOR STRESS PERIOD   10   TIME STEP    9
 
 SOLVING FOR HEAD 
                                                   Max.-Head-Change                         Max.-Flux-Residual
  Residual-Control   Outer-Iter.   Inner-Iter.     Column Row Layer    Maximum-Head-Change  Column Row Layer    Maximum-Flux-Residual          L2-NORM 
          0                 1           2             4    8     1       0.5397752160E-01       4    8    1         0.1275707857E+01      0.3488358328E+01
          0                 2           2             4    8     1      -0.5348745510E-02       4    8    1        -0.1275726781E+00      0.3488382475E+00
          0                 3           2             4    8     1       0.4770142947E-03       4    8    1         0.1148152387E-01      0.3139542247E-01
          0                 4           1             4    8     1      -0.3786214713E-04       4    8    1        -0.9196704468E-03      0.2514774164E-02

    ------------------------------------------------
       NWT REQUIRED            4 OUTER ITERATIONS 
       AND A TOTAL OF          7 INNER ITERATIONS.
    ------------------------------------------------

 OUTPUT CONTROL FOR STRESS PERIOD   10   TIME STEP   10
    PRINT BUDGET
    SAVE BUDGET

  HEAD DEP BOUNDS   PERIOD   10   STEP  10
 BOUNDARY      1   LAYER   1   ROW    13   COL     1   RATE    0.762364    
 BOUNDARY      2   LAYER   1   ROW    14   COL     9   RATE     2.37219    



 STREAM LISTING     PERIOD     10   STEP       10

 LAYER ROW COL. STREAM  RCH.  FLOW INTO     FLOW TO   FLOW OUT OF   OVRLND.     DIRECT     STREAM       STREAM     STREAM     STREAM   STREAMBED  STREAMBED
                SEG.NO.  NO.  STRM. RCH.    AQUIFER    STRM. RCH.    RUNOFF     PRECIP       ET          HEAD       DEPTH      WIDTH   CONDCTNC.   GRADIENT

   1    1    1     1     1    2.5000E+01  2.4515E-09   2.5000E+01  0.000E+00  0.000E+00  0.000E+00  1.09423E+03  1.178E+00  1.304E+01  5.867E-10  1.393E+00
   1    2    2     1     2    2.5000E+01  3.8085E-09   2.5000E+01  0.000E+00  0.000E+00  0.000E+00  1.08924E+03  1.177E+00  1.302E+01  9.117E-10  1.392E+00
   1    3    3     1     3    2.5000E+01  3.2661E-09   2.5000E+01  0.000E+00  0.000E+00  0.000E+00  1.08360E+03  1.178E+00  1.303E+01  7.818E-10  1.393E+00
   1    3    4     1     4    2.5000E+01  3.0219E-09   2.5000E+01  0.000E+00  0.000E+00  0.000E+00  1.07859E+03  1.178E+00  1.303E+01  7.233E-10  1.393E+00
   1    4    5     2     1    1.5000E+01  3.0290E-01   1.4697E+01  0.000E+00  0.000E+00  0.000E+00  1.07282E+03  8.834E-01  1.200E+01  7.800E-02  1.294E+00
   1    5    6     2     2    1.4697E+01  2.3243E-01   1.4465E+01  0.000E+00  0.000E+00  0.000E+00  1.06738E+03  8.738E-01  1.200E+01  6.000E-02  1.291E+00
   1    6    6     2     3    1.4465E+01  2.3193E-01   1.4233E+01  0.000E+00  0.000E+00  0.000E+00  1.06266E+03  8.654E-01  1.200E+01  6.000E-02  1.288E+00
   1    7    6     2     4    1.4233E+01  2.3142E-01   1.4001E+01  0.000E+00  0.000E+00  0.000E+00  1.05793E+03  8.570E-01  1.200E+01  6.000E-02  1.286E+00
   1    8    6     2     5    1.4001E+01  2.3091E-01   1.3770E+01  0.000E+00  0.000E+00  0.000E+00  1.05321E+03  8.486E-01  1.200E+01  6.000E-02  1.283E+00
   1    3    5     3     1    1.0000E+01  2.8252E-01   9.7175E+00  0.000E+00  0.000E+00  0.000E+00  1.07555E+03  1.909E+00  9.636E+00  7.227E-02  1.955E+00
   1    3    6     3     2    9.7175E+00  2.4905E-01   9.4684E+00  0.000E+00  0.000E+00  0.000E+00  1.07264E+03  1.727E+00  8.909E+00  6.682E-02  1.864E+00
   1    3    7     3     3    9.4684E+00  1.9718E-01   9.2712E+00  0.000E+00  0.000E+00  0.000E+00  1.06987E+03  1.555E+00  8.218E+00  5.547E-02  1.777E+00
   1    4    8     3     4    9.2712E+00  2.2567E-01   9.0456E+00  0.000E+00  0.000E+00  0.000E+00  1.06682E+03  1.364E+00  7.455E+00  6.709E-02  1.682E+00
   1    5    8     3     5    9.0456E+00  1.5790E-01   8.8877E+00  0.000E+00  0.000E+00  0.000E+00  1.06362E+03  1.164E+00  6.655E+00  4.991E-02  1.582E+00
   1    6    8     3     6    8.8877E+00  5.5980E-02   8.8317E+00  0.000E+00  0.000E+00  0.000E+00  1.06158E+03  1.036E+00  6.145E+00  1.844E-02  1.518E+00
   1    5   10     4     1    1.0000E+01  9.0919E-02   9.9091E+00  0.000E+00  0.000E+00  0.000E+00  1.07836E+03  6.368E-01  1.000E+01  2.500E-02  1.212E+00
   1    5    9     4     2    9.9091E+00  1.8158E-01   9.7275E+00  0.000E+00  0.000E+00  0.000E+00  1.07154E+03  6.315E-01  1.000E+01  5.000E-02  1.211E+00
   1    6    8     4     3    9.7275E+00  1.2689E-01   9.6006E+00  0.000E+00  0.000E+00  0.000E+00  1.06381E+03  6.256E-01  1.000E+01  3.500E-02  1.209E+00
   1    6    8     5     1    1.8432E+01  3.3262E-09   1.8432E+01  0.000E+00  0.000E+00  0.000E+00  1.05883E+03  8.293E-01  2.172E+01  8.686E-10  1.276E+00
   1    7    7     5     2    1.8432E+01  4.1514E-09   1.8432E+01  0.000E+00  0.000E+00  0.000E+00  1.05433E+03  8.286E-01  2.169E+01  1.084E-09  1.276E+00
   1    8    7     5     3    1.8432E+01  2.9126E-09   1.8432E+01  0.000E+00  0.000E+00  0.000E+00  1.05008E+03  8.296E-01  2.173E+01  7.606E-10  1.277E+00
   1    8    6     5     4    1.8432E+01  2.0836E-09   1.8432E+01  0.000E+00  0.000E+00  0.000E+00  1.04708E+03  8.303E-01  2.176E+01  5.440E-10  1.277E+00
   1    9    6     6     1    3.2203E+01  2.6507E-01   3.1938E+01  0.000E+00  0.000E+00  0.000E+00  1.04415E+03  1.418E+00  1.200E+01  6.000E-02  1.473E+00
   1   10    7     6     2    3.1938E+01  2.6465E-01   3.1673E+01  0.000E+00  0.000E+00  0.000E+00  1.03959E+03  1.411E+00  1.200E+01  6.000E-02  1.470E+00
   1   11    7     6     3    3.1673E+01  2.6423E-01   3.1409E+01  0.000E+00  0.000E+00  0.000E+00  1.03504E+03  1.404E+00  1.200E+01  6.000E-02  1.468E+00
   1   12    7     6     4    3.1409E+01  2.6380E-01   3.1145E+01  0.000E+00  0.000E+00  0.000E+00  1.03049E+03  1.397E+00  1.200E+01  6.000E-02  1.466E+00
   1   13    7     6     5    3.1145E+01  1.0540E-01   3.1040E+01  0.000E+00  0.000E+00  0.000E+00  1.02730E+03  1.392E+00  1.200E+01  2.400E-02  1.464E+00
   1   14    9     7     1    1.5000E+02  2.9539E-14   1.5000E+02  0.000E+00  0.000E+00  0.000E+00  1.03986E+03  2.283E+00  5.528E+01  5.591E-15  1.761E+00
   1   13    8     7     2    1.5000E+02  3.2486E-13   1.5000E+02  0.000E+00  0.000E+00  0.000E+00  1.03478E+03  2.283E+00  5.527E+01  6.150E-14  1.761E+00
   1   13    7     7     3    1.5000E+02  2.9539E-14   1.5000E+02  0.000E+00  0.000E+00  0.000E+00  1.02970E+03  2.283E+00  5.528E+01  5.591E-15  1.761E+00
   1   13    6     8     1    1.8104E+02  0.0000E+00   1.8104E+02  0.000E+00  0.000E+00  0.000E+00  1.02490E+03  3.023E+00  4.383E+01  0.000E+00  2.008E+00
   1   13    5     8     2    1.8104E+02  2.6787E-12   1.8104E+02  0.000E+00  0.000E+00  0.000E+00  1.01864E+03  3.014E+00  4.371E+01  4.454E-13  2.005E+00
   1   13    4     8     3    1.8104E+02  2.6787E-12   1.8104E+02  0.000E+00  0.000E+00  0.000E+00  1.01239E+03  3.014E+00  4.371E+01  4.454E-13  2.005E+00
   1   13    3     8     4    1.8104E+02  2.6787E-12   1.8104E+02  0.000E+00  0.000E+00  0.000E+00  1.00614E+03  3.014E+00  4.371E+01  4.454E-13  2.005E+00
   1   13    2     8     5    1.8104E+02  2.6787E-12   1.8104E+02  0.000E+00  0.000E+00  0.000E+00  9.99889E+02  3.014E+00  4.371E+01  4.454E-13  2.005E+00
   1   13    1     8     6    1.8104E+02  1.6099E-08   1.8104E+02  0.000E+00  0.000E+00  0.000E+00  9.94893E+02  3.018E+00  4.376E+01  2.675E-09  2.006E+00



 UBDSV3 SAVING "     NETRECHARGE" ON UNIT 100 AT TIME STEP 10, STRESS PERIOD  10
 UBDSV3 SAVING "    NETDISCHARGE" ON UNIT 101 AT TIME STEP 10, STRESS PERIOD  10
 UBDSV3 SAVING "           GW ET" ON UNIT  61 AT TIME STEP 10, STRESS PERIOD  10
 UBDSV3 SAVING "    UZF RECHARGE" ON UNIT  61 AT TIME STEP 10, STRESS PERIOD  10
 UBDSV3 SAVING " SURFACE LEAKAGE" ON UNIT  61 AT TIME STEP 10, STRESS PERIOD  10
 UBDSV3 SAVING "       HORT+DUNN" ON UNIT  61 AT TIME STEP 10, STRESS PERIOD  10
 UBDSV3 SAVING "  STORAGE CHANGE" ON UNIT  61 AT TIME STEP 10, STRESS PERIOD  10


UNSATURATED ZONE PACKAGE VOLUMETRIC BUDGET FOR  TIME STEP    10 STRESS PERIOD   10
  ------------------------------------------------------------------------------



     CUMULATIVE VOLUMES      L**3       RATES FOR THIS TIME STEP      L**3/T
     ------------------                 ------------------------

           IN:                                      IN:
           ---                                      ---
        INFILTRATION =    72413670.2568          INFILTRATION =           2.9000

          OUT:                                     OUT:
          ----                                     ----
              UZF ET =    21695315.3667                UZF ET =           1.1603
        UZF RECHARGE =     7621246.6355          UZF RECHARGE =       0.0000E+00

            IN - OUT =    43097108.2547              IN - OUT =           1.7397

          STORAGE:                                 STORAGE:
          --------                                 --------
      STORAGE CHANGE =    43097108.0599        STORAGE CHANGE =           1.7397

 PERCENT DISCREPANCY IS DIFFERENCE BETWEEN IN-OUT MINUS CHANGE IN STORAGE
 DIVIDED BY THE AVERAGE OF IN AND OUT TIMES 100

 PERCENT DISCREPANCY =           0.00     PERCENT DISCREPANCY =           0.00






1
  VOLUMETRIC BUDGET FOR ENTIRE MODEL AT END OF TIME STEP   10, STRESS PERIOD  10
  ------------------------------------------------------------------------------

     CUMULATIVE VOLUMES      L**3       RATES FOR THIS TIME STEP      L**3/T
     ------------------                 ------------------------

           IN:                                      IN:
           ---                                      ---
             STORAGE =   430012992.0000               STORAGE =           5.3993
       CONSTANT HEAD =           0.0000         CONSTANT HEAD =           0.0000
               WELLS =           0.0000                 WELLS =           0.0000
     HEAD DEP BOUNDS =    78144464.0000       HEAD DEP BOUNDS =           3.1345
      STREAM LEAKAGE =    99050144.0000        STREAM LEAKAGE =           3.9604
        UZF RECHARGE =     7621252.0000          UZF RECHARGE =           0.0000
               GW ET =           0.0000                 GW ET =           0.0000
     SURFACE LEAKAGE =           0.0000       SURFACE LEAKAGE =           0.0000

            TOTAL IN =   614828864.0000              TOTAL IN =          12.4943

          OUT:                                     OUT:
          ----                                     ----
             STORAGE =   115521024.0000               STORAGE =          12.4939
       CONSTANT HEAD =           0.0000         CONSTANT HEAD =           0.0000
               WELLS =   499320032.0000                 WELLS =           0.0000
     HEAD DEP BOUNDS =           0.0000       HEAD DEP BOUNDS =           0.0000
      STREAM LEAKAGE =           0.0000        STREAM LEAKAGE =           0.0000
        UZF RECHARGE =           0.0000          UZF RECHARGE =           0.0000
               GW ET =           0.0000                 GW ET =           0.0000
     SURFACE LEAKAGE =           0.0000       SURFACE LEAKAGE =           0.0000

           TOTAL OUT =   614841088.0000             TOTAL OUT =          12.4939

            IN - OUT =      -12224.0000              IN - OUT =       3.6335E-04

 PERCENT DISCREPANCY =          -0.00     PERCENT DISCREPANCY =           0.00






         TIME SUMMARY AT END OF TIME STEP   10 IN STRESS PERIOD   10
                    SECONDS     MINUTES      HOURS       DAYS        YEARS
                    -----------------------------------------------------------
   TIME STEP LENGTH 1.95033E+05  3250.6      54.176      2.2573     6.18023E-03
 STRESS PERIOD TIME 1.31823E+06  21971.      366.18      15.257     4.17723E-02
         TOTAL TIME 2.49702E+07 4.16170E+05  6936.2      289.01     0.79126    
1
 
 SOLVING FOR HEAD 
                                                   Max.-Head-Change                         Max.-Flux-Residual
  Residual-Control   Outer-Iter.   Inner-Iter.     Column Row Layer    Maximum-Head-Change  Column Row Layer    Maximum-Flux-Residual          L2-NORM 
          0                 1           2             4    8     1       0.5855727447E-01       4    8    1         0.1259917146E+01      0.3428886483E+01
          0                 2           2             4    8     1      -0.5802576972E-02       4    8    1        -0.1259939716E+00      0.3428914442E+00
          0                 3           2             4    8     1       0.5174879615E-03       4    8    1         0.1133943669E-01      0.3086020636E-01
          0                 4           1             4    8     1      -0.4107467264E-04       4    8    1        -0.9082892957E-03      0.2471903377E-02

    ------------------------------------------------
       NWT REQUIRED            4 OUTER ITERATIONS 
       AND A TOTAL OF          7 INNER ITERATIONS.
    ------------------------------------------------

 NO OUTPUT CONTROL FOR STRESS PERIOD   10   TIME STEP   11
 
 SOLVING FOR HEAD 
                                                   Max.-Head-Change                         Max.-Flux-Residual
  Residual-Control   Outer-Iter.   Inner-Iter.     Column Row Layer    Maximum-Head-Change  Column Row Layer    Maximum-Flux-Residual          L2-NORM 
          0                 1           2             4    8     1       0.6342586086E-01       4    8    1         0.1242559237E+01      0.3366753189E+01
          0                 2           2             4    8     1      -0.6285035093E-02       4    8    1        -0.1242586139E+00      0.3366785488E+00
          0                 3           2             4    8     1       0.5605145688E-03       4    8    1         0.1118325023E-01      0.3030104144E-01
          0                 4           1             4    8     1      -0.4448983235E-04       4    8    1        -0.8957787782E-03      0.2427114286E-02

    ------------------------------------------------
       NWT REQUIRED            4 OUTER ITERATIONS 
       AND A TOTAL OF          7 INNER ITERATIONS.
    ------------------------------------------------

 NO OUTPUT CONTROL FOR STRESS PERIOD   10   TIME STEP   12
 
 SOLVING FOR HEAD 
                                                   Max.-Head-Change                         Max.-Flux-Residual
  Residual-Control   Outer-Iter.   Inner-Iter.     Column Row Layer    Maximum-Head-Change  Column Row Layer    Maximum-Flux-Residual          L2-NORM 
          0                 1           2             4    8     1       0.6858006505E-01       4    8    1         0.1223516027E+01      0.3301972568E+01
          0                 2           2             4    8     1      -0.6795802824E-02       4    8    1        -0.1223548042E+00      0.3302009768E+00
          0                 3           2             4    8     1       0.6060658256E-03       4    8    1         0.1101190230E-01      0.2971805507E-01
          0                 4           1             4    8     1      -0.4810538361E-04       4    8    1        -0.8820538510E-03      0.2380417111E-02

    ------------------------------------------------
       NWT REQUIRED            4 OUTER ITERATIONS 
       AND A TOTAL OF          7 INNER ITERATIONS.
    ------------------------------------------------

 NO OUTPUT CONTROL FOR STRESS PERIOD   10   TIME STEP   13
 
 SOLVING FOR HEAD 
                                                   Max.-Head-Change                         Max.-Flux-Residual
  Residual-Control   Outer-Iter.   Inner-Iter.     Column Row Layer    Maximum-Head-Change  Column Row Layer    Maximum-Flux-Residual          L2-NORM 
          0                 1           2             4    8     1       0.7401175174E-01       4    8    1         0.1202677796E+01      0.3234567184E+01
          0                 2           2             4    8     1      -0.7334075959E-02       4    8    1        -0.1202715808E+00      0.3234609875E+00
          0                 3           2             4    8     1       0.6540699929E-03       4    8    1         0.1082440630E-01      0.2911145057E-01
          0                 4           1             4    8     1      -0.5191562964E-04       4    8    1        -0.8670354655E-03      0.2331828121E-02

    ------------------------------------------------
       NWT REQUIRED            4 OUTER ITERATIONS 
       AND A TOTAL OF          7 INNER ITERATIONS.
    ------------------------------------------------

 NO OUTPUT CONTROL FOR STRESS PERIOD   10   TIME STEP   14
 
 SOLVING FOR HEAD 
                                                   Max.-Head-Change                         Max.-Flux-Residual
  Residual-Control   Outer-Iter.   Inner-Iter.     Column Row Layer    Maximum-Head-Change  Column Row Layer    Maximum-Flux-Residual          L2-NORM 
          0                 1           2             4    8     1       0.7970662324E-01       4    8    1         0.1179937044E+01      0.3164576143E+01
          0                 2           2             4    8     1      -0.7898439998E-02       4    8    1        -0.1179982024E+00      0.3164624926E+00
          0                 3           2             4    8     1       0.7044008970E-03       4    8    1         0.1061979537E-01      0.2848157997E-01
          0                 4           1             4    8     1      -0.5591055688E-04       4    8    1        -0.8506461700E-03      0.2281375514E-02

    ------------------------------------------------
       NWT REQUIRED            4 OUTER ITERATIONS 
       AND A TOTAL OF          7 INNER ITERATIONS.
    ------------------------------------------------

 OUTPUT CONTROL FOR STRESS PERIOD   10   TIME STEP   15
    PRINT BUDGET
    PRINT HEAD FOR ALL LAYERS
    SAVE HEAD FOR ALL LAYERS
    SAVE BUDGET

  HEAD DEP BOUNDS   PERIOD   10   STEP  15
 BOUNDARY      1   LAYER   1   ROW    13   COL     1   RATE    0.762697    
 BOUNDARY      2   LAYER   1   ROW    14   COL     9   RATE     2.37246    



 STREAM LISTING     PERIOD     10   STEP       15

 LAYER ROW COL. STREAM  RCH.  FLOW INTO     FLOW TO   FLOW OUT OF   OVRLND.     DIRECT     STREAM       STREAM     STREAM     STREAM   STREAMBED  STREAMBED
                SEG.NO.  NO.  STRM. RCH.    AQUIFER    STRM. RCH.    RUNOFF     PRECIP       ET          HEAD       DEPTH      WIDTH   CONDCTNC.   GRADIENT

   1    1    1     1     1    2.5000E+01  2.4515E-09   2.5000E+01  0.000E+00  0.000E+00  0.000E+00  1.09423E+03  1.178E+00  1.304E+01  5.867E-10  1.393E+00
   1    2    2     1     2    2.5000E+01  3.8085E-09   2.5000E+01  0.000E+00  0.000E+00  0.000E+00  1.08924E+03  1.177E+00  1.302E+01  9.117E-10  1.392E+00
   1    3    3     1     3    2.5000E+01  3.2661E-09   2.5000E+01  0.000E+00  0.000E+00  0.000E+00  1.08360E+03  1.178E+00  1.303E+01  7.818E-10  1.393E+00
   1    3    4     1     4    2.5000E+01  3.0219E-09   2.5000E+01  0.000E+00  0.000E+00  0.000E+00  1.07859E+03  1.178E+00  1.303E+01  7.233E-10  1.393E+00
   1    4    5     2     1    1.5000E+01  3.0290E-01   1.4697E+01  0.000E+00  0.000E+00  0.000E+00  1.07282E+03  8.834E-01  1.200E+01  7.800E-02  1.294E+00
   1    5    6     2     2    1.4697E+01  2.3243E-01   1.4465E+01  0.000E+00  0.000E+00  0.000E+00  1.06738E+03  8.738E-01  1.200E+01  6.000E-02  1.291E+00
   1    6    6     2     3    1.4465E+01  2.3193E-01   1.4233E+01  0.000E+00  0.000E+00  0.000E+00  1.06266E+03  8.654E-01  1.200E+01  6.000E-02  1.288E+00
   1    7    6     2     4    1.4233E+01  2.3142E-01   1.4001E+01  0.000E+00  0.000E+00  0.000E+00  1.05793E+03  8.570E-01  1.200E+01  6.000E-02  1.286E+00
   1    8    6     2     5    1.4001E+01  2.3091E-01   1.3770E+01  0.000E+00  0.000E+00  0.000E+00  1.05321E+03  8.486E-01  1.200E+01  6.000E-02  1.283E+00
   1    3    5     3     1    1.0000E+01  2.8252E-01   9.7175E+00  0.000E+00  0.000E+00  0.000E+00  1.07555E+03  1.909E+00  9.636E+00  7.227E-02  1.955E+00
   1    3    6     3     2    9.7175E+00  2.4905E-01   9.4684E+00  0.000E+00  0.000E+00  0.000E+00  1.07264E+03  1.727E+00  8.909E+00  6.682E-02  1.864E+00
   1    3    7     3     3    9.4684E+00  1.9718E-01   9.2712E+00  0.000E+00  0.000E+00  0.000E+00  1.06987E+03  1.555E+00  8.218E+00  5.547E-02  1.777E+00
   1    4    8     3     4    9.2712E+00  2.2567E-01   9.0456E+00  0.000E+00  0.000E+00  0.000E+00  1.06682E+03  1.364E+00  7.455E+00  6.709E-02  1.682E+00
   1    5    8     3     5    9.0456E+00  1.5790E-01   8.8877E+00  0.000E+00  0.000E+00  0.000E+00  1.06362E+03  1.164E+00  6.655E+00  4.991E-02  1.582E+00
   1    6    8     3     6    8.8877E+00  5.5980E-02   8.8317E+00  0.000E+00  0.000E+00  0.000E+00  1.06158E+03  1.036E+00  6.145E+00  1.844E-02  1.518E+00
   1    5   10     4     1    1.0000E+01  9.0919E-02   9.9091E+00  0.000E+00  0.000E+00  0.000E+00  1.07836E+03  6.368E-01  1.000E+01  2.500E-02  1.212E+00
   1    5    9     4     2    9.9091E+00  1.8158E-01   9.7275E+00  0.000E+00  0.000E+00  0.000E+00  1.07154E+03  6.315E-01  1.000E+01  5.000E-02  1.211E+00
   1    6    8     4     3    9.7275E+00  1.2689E-01   9.6006E+00  0.000E+00  0.000E+00  0.000E+00  1.06381E+03  6.256E-01  1.000E+01  3.500E-02  1.209E+00
   1    6    8     5     1    1.8432E+01  3.3262E-09   1.8432E+01  0.000E+00  0.000E+00  0.000E+00  1.05883E+03  8.293E-01  2.172E+01  8.686E-10  1.276E+00
   1    7    7     5     2    1.8432E+01  4.1514E-09   1.8432E+01  0.000E+00  0.000E+00  0.000E+00  1.05433E+03  8.286E-01  2.169E+01  1.084E-09  1.276E+00
   1    8    7     5     3    1.8432E+01  2.9126E-09   1.8432E+01  0.000E+00  0.000E+00  0.000E+00  1.05008E+03  8.296E-01  2.173E+01  7.606E-10  1.277E+00
   1    8    6     5     4    1.8432E+01  2.0836E-09   1.8432E+01  0.000E+00  0.000E+00  0.000E+00  1.04708E+03  8.303E-01  2.176E+01  5.440E-10  1.277E+00
   1    9    6     6     1    3.2203E+01  2.6507E-01   3.1938E+01  0.000E+00  0.000E+00  0.000E+00  1.04415E+03  1.418E+00  1.200E+01  6.000E-02  1.473E+00
   1   10    7     6     2    3.1938E+01  2.6465E-01   3.1673E+01  0.000E+00  0.000E+00  0.000E+00  1.03959E+03  1.411E+00  1.200E+01  6.000E-02  1.470E+00
   1   11    7     6     3    3.1673E+01  2.6423E-01   3.1409E+01  0.000E+00  0.000E+00  0.000E+00  1.03504E+03  1.404E+00  1.200E+01  6.000E-02  1.468E+00
   1   12    7     6     4    3.1409E+01  2.6380E-01   3.1145E+01  0.000E+00  0.000E+00  0.000E+00  1.03049E+03  1.397E+00  1.200E+01  6.000E-02  1.466E+00
   1   13    7     6     5    3.1145E+01  1.0540E-01   3.1040E+01  0.000E+00  0.000E+00  0.000E+00  1.02730E+03  1.392E+00  1.200E+01  2.400E-02  1.464E+00
   1   14    9     7     1    1.5000E+02  2.9539E-14   1.5000E+02  0.000E+00  0.000E+00  0.000E+00  1.03986E+03  2.283E+00  5.528E+01  5.591E-15  1.761E+00
   1   13    8     7     2    1.5000E+02  3.2486E-13   1.5000E+02  0.000E+00  0.000E+00  0.000E+00  1.03478E+03  2.283E+00  5.527E+01  6.150E-14  1.761E+00
   1   13    7     7     3    1.5000E+02  2.9539E-14   1.5000E+02  0.000E+00  0.000E+00  0.000E+00  1.02970E+03  2.283E+00  5.528E+01  5.591E-15  1.761E+00
   1   13    6     8     1    1.8104E+02  0.0000E+00   1.8104E+02  0.000E+00  0.000E+00  0.000E+00  1.02490E+03  3.023E+00  4.383E+01  0.000E+00  2.008E+00
   1   13    5     8     2    1.8104E+02  2.6787E-12   1.8104E+02  0.000E+00  0.000E+00  0.000E+00  1.01864E+03  3.014E+00  4.371E+01  4.454E-13  2.005E+00
   1   13    4     8     3    1.8104E+02  2.6787E-12   1.8104E+02  0.000E+00  0.000E+00  0.000E+00  1.01239E+03  3.014E+00  4.371E+01  4.454E-13  2.005E+00
   1   13    3     8     4    1.8104E+02  2.6787E-12   1.8104E+02  0.000E+00  0.000E+00  0.000E+00  1.00614E+03  3.014E+00  4.371E+01  4.454E-13  2.005E+00
   1   13    2     8     5    1.8104E+02  2.6787E-12   1.8104E+02  0.000E+00  0.000E+00  0.000E+00  9.99889E+02  3.014E+00  4.371E+01  4.454E-13  2.005E+00
   1   13    1     8     6    1.8104E+02  1.6099E-08   1.8104E+02  0.000E+00  0.000E+00  0.000E+00  9.94893E+02  3.018E+00  4.376E+01  2.675E-09  2.006E+00



 UBDSV3 SAVING "     NETRECHARGE" ON UNIT 100 AT TIME STEP 15, STRESS PERIOD  10
 UBDSV3 SAVING "    NETDISCHARGE" ON UNIT 101 AT TIME STEP 15, STRESS PERIOD  10
 UBDSV3 SAVING "           GW ET" ON UNIT  61 AT TIME STEP 15, STRESS PERIOD  10
 UBDSV3 SAVING "    UZF RECHARGE" ON UNIT  61 AT TIME STEP 15, STRESS PERIOD  10
 UBDSV3 SAVING " SURFACE LEAKAGE" ON UNIT  61 AT TIME STEP 15, STRESS PERIOD  10
 UBDSV3 SAVING "       HORT+DUNN" ON UNIT  61 AT TIME STEP 15, STRESS PERIOD  10
 UBDSV3 SAVING "  STORAGE CHANGE" ON UNIT  61 AT TIME STEP 15, STRESS PERIOD  10


UNSATURATED ZONE PACKAGE VOLUMETRIC BUDGET FOR  TIME STEP    15 STRESS PERIOD   10
  ------------------------------------------------------------------------------



     CUMULATIVE VOLUMES      L**3       RATES FOR THIS TIME STEP      L**3/T
     ------------------                 ------------------------

           IN:                                      IN:
           ---                                      ---
        INFILTRATION =    76211992.6084          INFILTRATION =           2.9000

          OUT:                                     OUT:
          ----                                     ----
              UZF ET =    23226736.7881                UZF ET =           1.1749
        UZF RECHARGE =     7621246.6355          UZF RECHARGE =       0.0000E+00

            IN - OUT =    45364009.1848              IN - OUT =           1.7251

          STORAGE:                                 STORAGE:
          --------                                 --------
      STORAGE CHANGE =    45364009.0226        STORAGE CHANGE =           1.7251

 PERCENT DISCREPANCY IS DIFFERENCE BETWEEN IN-OUT MINUS CHANGE IN STORAGE
 DIVIDED BY THE AVERAGE OF IN AND OUT TIMES 100

 PERCENT DISCREPANCY =           0.00     PERCENT DISCREPANCY =           0.00






1
              HEAD IN LAYER   1 AT END OF TIME STEP  15 IN STRESS PERIOD   10
  ---------------------------------------------------------------------------

           1       2       3       4       5       6       7       8       9      10
 ...................................................................................
   1  1003.30 1000.44 6999.00 6999.00 6999.00 6999.00 6999.00 6999.00 6999.00 6999.00
   2  1000.87  958.76  958.18 6999.00 6999.00  964.34  964.81  965.19 6999.00 6999.00
   3  6999.00  957.86  957.13  956.85  957.83  959.33  960.65  961.52 6999.00 6999.00
   4   959.00  957.46  956.44  956.01  956.30  956.71  958.06  960.59  961.93 6999.00
   5   958.64  956.57  955.23  954.78  955.17  955.99  956.80  957.96  959.62  964.21
   6   958.26  955.85  953.97  953.54  954.05  955.22  956.25  957.31  958.90  972.13
   7   958.02  955.43  953.18  952.75  953.38  954.69  955.81  956.79  960.70 6999.00
   8  6999.00  955.52  953.06  952.62  953.32  954.61  955.67  957.26  962.26 6999.00
   9  6999.00  956.18  953.81  953.36  953.99  955.19  956.29  958.25  963.39 6999.00
  10  6999.00  957.48  955.38  954.82  955.25  956.28  957.46  959.53  963.66  967.26
  11  6999.00  959.41  957.67  956.75  957.04  957.91  959.21  961.50  965.80 6999.00
  12   965.88  961.49  959.48  958.58  958.71  959.57  961.05  964.55  970.78 6999.00
  13   967.93  962.75  960.60  959.76  959.86  960.94  963.29  967.80  976.54 6999.00
  14  6999.00  963.90  961.40  961.08  961.45  962.92  966.28  973.48  982.57 6999.00
  15  6999.00 6999.00  965.42  965.42  965.70  966.23 6999.00 6999.00 6999.00 6999.00

 HEAD WILL BE SAVED ON UNIT   58 AT END OF TIME STEP   15, STRESS PERIOD   10
1
  VOLUMETRIC BUDGET FOR ENTIRE MODEL AT END OF TIME STEP   15, STRESS PERIOD  10
  ------------------------------------------------------------------------------

     CUMULATIVE VOLUMES      L**3       RATES FOR THIS TIME STEP      L**3/T
     ------------------                 ------------------------

           IN:                                      IN:
           ---                                      ---
             STORAGE =   436636096.0000               STORAGE =           4.8366
       CONSTANT HEAD =           0.0000         CONSTANT HEAD =           0.0000
               WELLS =           0.0000                 WELLS =           0.0000
     HEAD DEP BOUNDS =    82250456.0000       HEAD DEP BOUNDS =           3.1352
      STREAM LEAKAGE =   104237392.0000        STREAM LEAKAGE =           3.9604
        UZF RECHARGE =     7621252.0000          UZF RECHARGE =           0.0000
               GW ET =           0.0000                 GW ET =           0.0000
     SURFACE LEAKAGE =           0.0000       SURFACE LEAKAGE =           0.0000

            TOTAL IN =   630745216.0000              TOTAL IN =          11.9321

          OUT:                                     OUT:
          ----                                     ----
             STORAGE =   131436888.0000               STORAGE =          11.9318
       CONSTANT HEAD =           0.0000         CONSTANT HEAD =           0.0000
               WELLS =   499320032.0000                 WELLS =           0.0000
     HEAD DEP BOUNDS =           0.0000       HEAD DEP BOUNDS =           0.0000
      STREAM LEAKAGE =           0.0000        STREAM LEAKAGE =           0.0000
        UZF RECHARGE =           0.0000          UZF RECHARGE =           0.0000
               GW ET =           0.0000                 GW ET =           0.0000
     SURFACE LEAKAGE =           0.0000       SURFACE LEAKAGE =           0.0000

           TOTAL OUT =   630756928.0000             TOTAL OUT =          11.9318

            IN - OUT =      -11712.0000              IN - OUT =       3.6430E-04

 PERCENT DISCREPANCY =          -0.00     PERCENT DISCREPANCY =           0.00






         TIME SUMMARY AT END OF TIME STEP   15 IN STRESS PERIOD   10
                    SECONDS     MINUTES      HOURS       DAYS        YEARS
                    -----------------------------------------------------------
   TIME STEP LENGTH 3.14103E+05  5235.0      87.251      3.6354     9.95332E-03
 STRESS PERIOD TIME 2.62800E+06  43800.      730.00      30.417     8.32763E-02
         TOTAL TIME 2.62800E+07 4.38000E+05  7300.0      304.17     0.83276    
1
1
                            STRESS PERIOD NO.   11, LENGTH =   2628000.    
                            -----------------------------------------------

                              NUMBER OF TIME STEPS =    15

                               MULTIPLIER FOR DELT =     1.100

                            INITIAL TIME STEP SIZE =   82713.07    

 WELL NO.  LAYER   ROW   COL   STRESS RATE         
 --------------------------------------------------
      1      1      6      4      -3.000    
      2      1      6      5      -3.000    
      3      1      7      4      -3.000    
      4      1      7      5      -3.000    
      5      1      8      4      -3.000    
      6      1      8      5      -3.000    
      7      1      9      4      -3.000    
      8      1      9      5      -3.000    
      9      1     10      4      -3.000    
     10      1     10      5      -3.000    

     10 WELLS

 REUSING NON-PARAMETER GHB CELLS FROM LAST STRESS PERIOD

      2 GHB CELLS

 REUSING STREAM SEGMENT DATA FROM LAST STRESS PERIOD



            AREAL INFILTRATION RATE
 READING ON UNIT   19 WITH FORMAT: (10F4.0)            

            1           2           3           4           5           6           7           8           9          10
 ........................................................................................................................
   1   1.0000E-09  2.0000E-09   0.000       0.000       0.000       0.000       0.000       0.000       0.000       0.000    
   2   2.0000E-09  1.0000E-09  2.0000E-09   0.000       0.000      8.0000E-09  8.0000E-09  5.0000E-09   0.000       0.000    
   3    0.000      5.0000E-09  1.0000E-09  1.0000E-09  8.0000E-09  8.0000E-09  5.0000E-09  5.0000E-09   0.000       0.000    
   4   8.0000E-09  5.0000E-09  1.0000E-09  1.0000E-09  1.0000E-09  1.0000E-09  1.0000E-09  1.0000E-09  2.0000E-09   0.000    
   5   8.0000E-09  5.0000E-09  1.0000E-09  1.0000E-09  1.0000E-09  1.0000E-09  1.0000E-09  1.0000E-09  1.0000E-09  1.0000E-09
   6   8.0000E-09  5.0000E-09  5.0000E-09  2.0000E-09  2.0000E-09  1.0000E-09  1.0000E-09  1.0000E-09  1.0000E-09  5.0000E-09
   7   8.0000E-09  5.0000E-09  5.0000E-09  2.0000E-09  2.0000E-09  1.0000E-09  1.0000E-09  2.0000E-09  2.0000E-09   0.000    
   8    0.000      5.0000E-09  5.0000E-09  2.0000E-09  2.0000E-09  1.0000E-09  1.0000E-09  2.0000E-09  5.0000E-09   0.000    
   9    0.000      5.0000E-09  5.0000E-09  2.0000E-09  2.0000E-09  1.0000E-09  1.0000E-09  2.0000E-09  5.0000E-09   0.000    
  10    0.000      5.0000E-09  5.0000E-09  2.0000E-09  2.0000E-09  1.0000E-09  1.0000E-09  2.0000E-09  5.0000E-09  8.0000E-09
  11    0.000      1.0000E-09  1.0000E-09  1.0000E-09  1.0000E-09  1.0000E-09  1.0000E-09  2.0000E-09  5.0000E-09   0.000    
  12   1.0000E-09  1.0000E-09  1.0000E-09  1.0000E-09  1.0000E-09  1.0000E-09  1.0000E-09  1.0000E-09  2.0000E-09   0.000    
  13   1.0000E-09  1.0000E-09  2.0000E-09  2.0000E-09  2.0000E-09  2.0000E-09  2.0000E-09  1.0000E-09  1.0000E-09   0.000    
  14    0.000      2.0000E-09  5.0000E-09  5.0000E-09  5.0000E-09  5.0000E-09  5.0000E-09  2.0000E-09  1.0000E-09   0.000    
  15    0.000       0.000      8.0000E-09  8.0000E-09  8.0000E-09  8.0000E-09   0.000       0.000       0.000       0.000    

USING ET RATE FROM PREVIOUS STRESS PERIOD. CURRENT PERIOD IS:      11

 USING ET EXTINCTION DEPTH FROM PREVIOUS STRESS PERIOD. CURRENT PERIOD IS:      11

 USING EXTINCTION WATER CONTENT FROM PREVIOUS STRESS PERIOD. CURRENT PERIOD IS:      11
 
 SOLVING FOR HEAD 
                                                   Max.-Head-Change                         Max.-Flux-Residual
  Residual-Control   Outer-Iter.   Inner-Iter.     Column Row Layer    Maximum-Head-Change  Column Row Layer    Maximum-Flux-Residual          L2-NORM 
          0                 1           2             5    6     1      -0.4084903139E-01       5   10    1        -0.2310576336E+01      0.6700383742E+01
          0                 2           2             5    6     1       0.4047761913E-02       5   10    1         0.2310572739E+00      0.6700382569E+00
          0                 3           2             5    6     1      -0.3609899110E-03       5   10    1        -0.2079516076E-01      0.6030345176E-01
          0                 4           1             5    6     1       0.2865291700E-04       5   10    1         0.1665692782E-02      0.4830307706E-02

    ------------------------------------------------
       NWT REQUIRED            4 OUTER ITERATIONS 
       AND A TOTAL OF          7 INNER ITERATIONS.
    ------------------------------------------------

 NO OUTPUT CONTROL FOR STRESS PERIOD   11   TIME STEP    1
 
 SOLVING FOR HEAD 
                                                   Max.-Head-Change                         Max.-Flux-Residual
  Residual-Control   Outer-Iter.   Inner-Iter.     Column Row Layer    Maximum-Head-Change  Column Row Layer    Maximum-Flux-Residual          L2-NORM 
          0                 1           2             5    6     1      -0.4367255779E-01       5    6    1        -0.2249395511E+01      0.6595211657E+01
          0                 2           2             5    6     1       0.4327546674E-02       5    6    1         0.2249391166E+00      0.6595209571E+00
          0                 3           2             5    6     1      -0.3859418479E-03       5    6    1        -0.2024452727E-01      0.5935689555E-01
          0                 4           1             5    6     1       0.3063343148E-04       5    6    1         0.1621587015E-02      0.4754488530E-02

    ------------------------------------------------
       NWT REQUIRED            4 OUTER ITERATIONS 
       AND A TOTAL OF          7 INNER ITERATIONS.
    ------------------------------------------------

 NO OUTPUT CONTROL FOR STRESS PERIOD   11   TIME STEP    2
 
 SOLVING FOR HEAD 
                                                   Max.-Head-Change                         Max.-Flux-Residual
  Residual-Control   Outer-Iter.   Inner-Iter.     Column Row Layer    Maximum-Head-Change  Column Row Layer    Maximum-Flux-Residual          L2-NORM 
          0                 1           2             5    6     1      -0.4659611656E-01       5    6    1        -0.2186256853E+01      0.6485324983E+01
          0                 2           2             5    6     1       0.4617243508E-02       5    6    1         0.2186252157E+00      0.6485321522E+00
          0                 3           2             5    6     1      -0.4117777718E-03       5    6    1        -0.1967627647E-01      0.5836790434E-01
          0                 4           1             5    6     1       0.3268411076E-04       5    6    1         0.1576070096E-02      0.4675270279E-02

    ------------------------------------------------
       NWT REQUIRED            4 OUTER ITERATIONS 
       AND A TOTAL OF          7 INNER ITERATIONS.
    ------------------------------------------------

 NO OUTPUT CONTROL FOR STRESS PERIOD   11   TIME STEP    3
 
 SOLVING FOR HEAD 
                                                   Max.-Head-Change                         Max.-Flux-Residual
  Residual-Control   Outer-Iter.   Inner-Iter.     Column Row Layer    Maximum-Head-Change  Column Row Layer    Maximum-Flux-Residual          L2-NORM 
          0                 1           2             5    6     1      -0.4961088737E-01       5    6    1        -0.2120551519E+01      0.6370920819E+01
          0                 2           2             5    6     1       0.4915978324E-02       5    6    1         0.2120546407E+00      0.6370915364E+00
          0                 3           2             5    6     1      -0.4384197293E-03       5    6    1        -0.1908492505E-01      0.5733825076E-01
          0                 4           1             5    6     1       0.3479876748E-04       5    6    1         0.1528702842E-02      0.4592795010E-02

    ------------------------------------------------
       NWT REQUIRED            4 OUTER ITERATIONS 
       AND A TOTAL OF          7 INNER ITERATIONS.
    ------------------------------------------------

 NO OUTPUT CONTROL FOR STRESS PERIOD   11   TIME STEP    4
 
 SOLVING FOR HEAD 
                                                   Max.-Head-Change                         Max.-Flux-Residual
  Residual-Control   Outer-Iter.   Inner-Iter.     Column Row Layer    Maximum-Head-Change  Column Row Layer    Maximum-Flux-Residual          L2-NORM 
          0                 1           2             4   10     1      -0.5275097788E-01       5    6    1        -0.2052501501E+01      0.6252308277E+01
          0                 2           2             4   10     1       0.5227130311E-02       5    6    1         0.2052495894E+00      0.6252300056E+00
          0                 3           2             4   10     1      -0.4661690900E-03       5    6    1        -0.1847247084E-01      0.5627071556E-01
          0                 4           1             4   10     1       0.3700132200E-04       5    6    1         0.1479645249E-02      0.4507285390E-02

    ------------------------------------------------
       NWT REQUIRED            4 OUTER ITERATIONS 
       AND A TOTAL OF          7 INNER ITERATIONS.
    ------------------------------------------------

 OUTPUT CONTROL FOR STRESS PERIOD   11   TIME STEP    5
    PRINT BUDGET
    SAVE BUDGET

            WELLS   PERIOD   11   STEP   5
 WELL      1   LAYER   1   ROW     6   COL     4   RATE    -3.00000    
 WELL      2   LAYER   1   ROW     6   COL     5   RATE    -3.00000    
 WELL      3   LAYER   1   ROW     7   COL     4   RATE    -3.00000    
 WELL      4   LAYER   1   ROW     7   COL     5   RATE    -3.00000    
 WELL      5   LAYER   1   ROW     8   COL     4   RATE    -3.00000    
 WELL      6   LAYER   1   ROW     8   COL     5   RATE    -3.00000    
 WELL      7   LAYER   1   ROW     9   COL     4   RATE    -3.00000    
 WELL      8   LAYER   1   ROW     9   COL     5   RATE    -3.00000    
 WELL      9   LAYER   1   ROW    10   COL     4   RATE    -3.00000    
 WELL     10   LAYER   1   ROW    10   COL     5   RATE    -3.00000    

  HEAD DEP BOUNDS   PERIOD   11   STEP   5
 BOUNDARY      1   LAYER   1   ROW    13   COL     1   RATE    0.762827    
 BOUNDARY      2   LAYER   1   ROW    14   COL     9   RATE     2.37257    



 STREAM LISTING     PERIOD     11   STEP        5

 LAYER ROW COL. STREAM  RCH.  FLOW INTO     FLOW TO   FLOW OUT OF   OVRLND.     DIRECT     STREAM       STREAM     STREAM     STREAM   STREAMBED  STREAMBED
                SEG.NO.  NO.  STRM. RCH.    AQUIFER    STRM. RCH.    RUNOFF     PRECIP       ET          HEAD       DEPTH      WIDTH   CONDCTNC.   GRADIENT

   1    1    1     1     1    2.5000E+01  2.4515E-09   2.5000E+01  0.000E+00  0.000E+00  0.000E+00  1.09423E+03  1.178E+00  1.304E+01  5.867E-10  1.393E+00
   1    2    2     1     2    2.5000E+01  3.8085E-09   2.5000E+01  0.000E+00  0.000E+00  0.000E+00  1.08924E+03  1.177E+00  1.302E+01  9.117E-10  1.392E+00
   1    3    3     1     3    2.5000E+01  3.2661E-09   2.5000E+01  0.000E+00  0.000E+00  0.000E+00  1.08360E+03  1.178E+00  1.303E+01  7.818E-10  1.393E+00
   1    3    4     1     4    2.5000E+01  3.0219E-09   2.5000E+01  0.000E+00  0.000E+00  0.000E+00  1.07859E+03  1.178E+00  1.303E+01  7.233E-10  1.393E+00
   1    4    5     2     1    1.5000E+01  3.0290E-01   1.4697E+01  0.000E+00  0.000E+00  0.000E+00  1.07282E+03  8.834E-01  1.200E+01  7.800E-02  1.294E+00
   1    5    6     2     2    1.4697E+01  2.3243E-01   1.4465E+01  0.000E+00  0.000E+00  0.000E+00  1.06738E+03  8.738E-01  1.200E+01  6.000E-02  1.291E+00
   1    6    6     2     3    1.4465E+01  2.3193E-01   1.4233E+01  0.000E+00  0.000E+00  0.000E+00  1.06266E+03  8.654E-01  1.200E+01  6.000E-02  1.288E+00
   1    7    6     2     4    1.4233E+01  2.3142E-01   1.4001E+01  0.000E+00  0.000E+00  0.000E+00  1.05793E+03  8.570E-01  1.200E+01  6.000E-02  1.286E+00
   1    8    6     2     5    1.4001E+01  2.3091E-01   1.3770E+01  0.000E+00  0.000E+00  0.000E+00  1.05321E+03  8.486E-01  1.200E+01  6.000E-02  1.283E+00
   1    3    5     3     1    1.0000E+01  2.8252E-01   9.7175E+00  0.000E+00  0.000E+00  0.000E+00  1.07555E+03  1.909E+00  9.636E+00  7.227E-02  1.955E+00
   1    3    6     3     2    9.7175E+00  2.4905E-01   9.4684E+00  0.000E+00  0.000E+00  0.000E+00  1.07264E+03  1.727E+00  8.909E+00  6.682E-02  1.864E+00
   1    3    7     3     3    9.4684E+00  1.9718E-01   9.2712E+00  0.000E+00  0.000E+00  0.000E+00  1.06987E+03  1.555E+00  8.218E+00  5.547E-02  1.777E+00
   1    4    8     3     4    9.2712E+00  2.2567E-01   9.0456E+00  0.000E+00  0.000E+00  0.000E+00  1.06682E+03  1.364E+00  7.455E+00  6.709E-02  1.682E+00
   1    5    8     3     5    9.0456E+00  1.5790E-01   8.8877E+00  0.000E+00  0.000E+00  0.000E+00  1.06362E+03  1.164E+00  6.655E+00  4.991E-02  1.582E+00
   1    6    8     3     6    8.8877E+00  5.5980E-02   8.8317E+00  0.000E+00  0.000E+00  0.000E+00  1.06158E+03  1.036E+00  6.145E+00  1.844E-02  1.518E+00
   1    5   10     4     1    1.0000E+01  9.0919E-02   9.9091E+00  0.000E+00  0.000E+00  0.000E+00  1.07836E+03  6.368E-01  1.000E+01  2.500E-02  1.212E+00
   1    5    9     4     2    9.9091E+00  1.8158E-01   9.7275E+00  0.000E+00  0.000E+00  0.000E+00  1.07154E+03  6.315E-01  1.000E+01  5.000E-02  1.211E+00
   1    6    8     4     3    9.7275E+00  1.2689E-01   9.6006E+00  0.000E+00  0.000E+00  0.000E+00  1.06381E+03  6.256E-01  1.000E+01  3.500E-02  1.209E+00
   1    6    8     5     1    1.8432E+01  3.3262E-09   1.8432E+01  0.000E+00  0.000E+00  0.000E+00  1.05883E+03  8.293E-01  2.172E+01  8.686E-10  1.276E+00
   1    7    7     5     2    1.8432E+01  4.1514E-09   1.8432E+01  0.000E+00  0.000E+00  0.000E+00  1.05433E+03  8.286E-01  2.169E+01  1.084E-09  1.276E+00
   1    8    7     5     3    1.8432E+01  2.9126E-09   1.8432E+01  0.000E+00  0.000E+00  0.000E+00  1.05008E+03  8.296E-01  2.173E+01  7.606E-10  1.277E+00
   1    8    6     5     4    1.8432E+01  2.0836E-09   1.8432E+01  0.000E+00  0.000E+00  0.000E+00  1.04708E+03  8.303E-01  2.176E+01  5.440E-10  1.277E+00
   1    9    6     6     1    3.2203E+01  2.6507E-01   3.1938E+01  0.000E+00  0.000E+00  0.000E+00  1.04415E+03  1.418E+00  1.200E+01  6.000E-02  1.473E+00
   1   10    7     6     2    3.1938E+01  2.6465E-01   3.1673E+01  0.000E+00  0.000E+00  0.000E+00  1.03959E+03  1.411E+00  1.200E+01  6.000E-02  1.470E+00
   1   11    7     6     3    3.1673E+01  2.6423E-01   3.1409E+01  0.000E+00  0.000E+00  0.000E+00  1.03504E+03  1.404E+00  1.200E+01  6.000E-02  1.468E+00
   1   12    7     6     4    3.1409E+01  2.6380E-01   3.1145E+01  0.000E+00  0.000E+00  0.000E+00  1.03049E+03  1.397E+00  1.200E+01  6.000E-02  1.466E+00
   1   13    7     6     5    3.1145E+01  1.0540E-01   3.1040E+01  0.000E+00  0.000E+00  0.000E+00  1.02730E+03  1.392E+00  1.200E+01  2.400E-02  1.464E+00
   1   14    9     7     1    1.5000E+02  2.9539E-14   1.5000E+02  0.000E+00  0.000E+00  0.000E+00  1.03986E+03  2.283E+00  5.528E+01  5.591E-15  1.761E+00
   1   13    8     7     2    1.5000E+02  3.2486E-13   1.5000E+02  0.000E+00  0.000E+00  0.000E+00  1.03478E+03  2.283E+00  5.527E+01  6.150E-14  1.761E+00
   1   13    7     7     3    1.5000E+02  2.9539E-14   1.5000E+02  0.000E+00  0.000E+00  0.000E+00  1.02970E+03  2.283E+00  5.528E+01  5.591E-15  1.761E+00
   1   13    6     8     1    1.8104E+02  0.0000E+00   1.8104E+02  0.000E+00  0.000E+00  0.000E+00  1.02490E+03  3.023E+00  4.383E+01  0.000E+00  2.008E+00
   1   13    5     8     2    1.8104E+02  2.6787E-12   1.8104E+02  0.000E+00  0.000E+00  0.000E+00  1.01864E+03  3.014E+00  4.371E+01  4.454E-13  2.005E+00
   1   13    4     8     3    1.8104E+02  2.6787E-12   1.8104E+02  0.000E+00  0.000E+00  0.000E+00  1.01239E+03  3.014E+00  4.371E+01  4.454E-13  2.005E+00
   1   13    3     8     4    1.8104E+02  2.6787E-12   1.8104E+02  0.000E+00  0.000E+00  0.000E+00  1.00614E+03  3.014E+00  4.371E+01  4.454E-13  2.005E+00
   1   13    2     8     5    1.8104E+02  2.6787E-12   1.8104E+02  0.000E+00  0.000E+00  0.000E+00  9.99889E+02  3.014E+00  4.371E+01  4.454E-13  2.005E+00
   1   13    1     8     6    1.8104E+02  1.6099E-08   1.8104E+02  0.000E+00  0.000E+00  0.000E+00  9.94893E+02  3.018E+00  4.376E+01  2.675E-09  2.006E+00



 UBDSV3 SAVING "     NETRECHARGE" ON UNIT 100 AT TIME STEP  5, STRESS PERIOD  11
 UBDSV3 SAVING "    NETDISCHARGE" ON UNIT 101 AT TIME STEP  5, STRESS PERIOD  11
 UBDSV3 SAVING "           GW ET" ON UNIT  61 AT TIME STEP  5, STRESS PERIOD  11
 UBDSV3 SAVING "    UZF RECHARGE" ON UNIT  61 AT TIME STEP  5, STRESS PERIOD  11
 UBDSV3 SAVING " SURFACE LEAKAGE" ON UNIT  61 AT TIME STEP  5, STRESS PERIOD  11
 UBDSV3 SAVING "       HORT+DUNN" ON UNIT  61 AT TIME STEP  5, STRESS PERIOD  11
 UBDSV3 SAVING "  STORAGE CHANGE" ON UNIT  61 AT TIME STEP  5, STRESS PERIOD  11


UNSATURATED ZONE PACKAGE VOLUMETRIC BUDGET FOR  TIME STEP     5 STRESS PERIOD   11
  ------------------------------------------------------------------------------



     CUMULATIVE VOLUMES      L**3       RATES FOR THIS TIME STEP      L**3/T
     ------------------                 ------------------------

           IN:                                      IN:
           ---                                      ---
        INFILTRATION =    77676410.1680          INFILTRATION =           2.9000

          OUT:                                     OUT:
          ----                                     ----
              UZF ET =    23818468.2190                UZF ET =           1.1723
        UZF RECHARGE =     7621246.6355          UZF RECHARGE =       0.0000E+00

            IN - OUT =    46236695.3135              IN - OUT =           1.7277

          STORAGE:                                 STORAGE:
          --------                                 --------
      STORAGE CHANGE =    46236695.1314        STORAGE CHANGE =           1.7277

 PERCENT DISCREPANCY IS DIFFERENCE BETWEEN IN-OUT MINUS CHANGE IN STORAGE
 DIVIDED BY THE AVERAGE OF IN AND OUT TIMES 100

 PERCENT DISCREPANCY =           0.00     PERCENT DISCREPANCY =           0.00






1
  VOLUMETRIC BUDGET FOR ENTIRE MODEL AT END OF TIME STEP    5, STRESS PERIOD  11
  ------------------------------------------------------------------------------

     CUMULATIVE VOLUMES      L**3       RATES FOR THIS TIME STEP      L**3/T
     ------------------                 ------------------------

           IN:                                      IN:
           ---                                      ---
             STORAGE =   449073312.0000               STORAGE =          23.9597
       CONSTANT HEAD =           0.0000         CONSTANT HEAD =           0.0000
               WELLS =           0.0000                 WELLS =           0.0000
     HEAD DEP BOUNDS =    83833696.0000       HEAD DEP BOUNDS =           3.1354
      STREAM LEAKAGE =   106238448.0000        STREAM LEAKAGE =           3.9604
        UZF RECHARGE =     7621252.0000          UZF RECHARGE =           0.0000
               GW ET =           0.0000                 GW ET =           0.0000
     SURFACE LEAKAGE =           0.0000       SURFACE LEAKAGE =           0.0000

            TOTAL IN =   646766720.0000              TOTAL IN =          31.0555

          OUT:                                     OUT:
          ----                                     ----
             STORAGE =   132309808.0000               STORAGE =           1.0566
       CONSTANT HEAD =           0.0000         CONSTANT HEAD =           0.0000
               WELLS =   514469152.0000                 WELLS =          30.0000
     HEAD DEP BOUNDS =           0.0000       HEAD DEP BOUNDS =           0.0000
      STREAM LEAKAGE =           0.0000        STREAM LEAKAGE =           0.0000
        UZF RECHARGE =           0.0000          UZF RECHARGE =           0.0000
               GW ET =           0.0000                 GW ET =           0.0000
     SURFACE LEAKAGE =           0.0000       SURFACE LEAKAGE =           0.0000

           TOTAL OUT =   646778944.0000             TOTAL OUT =          31.0566

            IN - OUT =      -12224.0000              IN - OUT =      -1.1578E-03

 PERCENT DISCREPANCY =          -0.00     PERCENT DISCREPANCY =          -0.00






         TIME SUMMARY AT END OF TIME STEP    5 IN STRESS PERIOD   11
                    SECONDS     MINUTES      HOURS       DAYS        YEARS
                    -----------------------------------------------------------
   TIME STEP LENGTH 1.21100E+05  2018.3      33.639      1.4016     3.83743E-03
 STRESS PERIOD TIME 5.04972E+05  8416.2      140.27      5.8446     1.60016E-02
         TOTAL TIME 2.67850E+07 4.46416E+05  7440.3      310.01     0.84876    
1
 
 SOLVING FOR HEAD 
                                                   Max.-Head-Change                         Max.-Flux-Residual
  Residual-Control   Outer-Iter.   Inner-Iter.     Column Row Layer    Maximum-Head-Change  Column Row Layer    Maximum-Flux-Residual          L2-NORM 
          0                 1           2             4   10     1      -0.5666517370E-01       4   10    1        -0.1983227262E+01      0.6129864937E+01
          0                 2           2             4   10     1       0.5614986941E-02       4   10    1         0.1983219992E+00      0.6129853016E+00
          0                 3           2             4   10     1      -0.5007591906E-03       4   10    1        -0.1784898926E-01      0.5516869570E-01
          0                 4           1             4   10     1       0.3974684811E-04       4   10    1         0.1429704332E-02      0.4419013551E-02

    ------------------------------------------------
       NWT REQUIRED            4 OUTER ITERATIONS 
       AND A TOTAL OF          7 INNER ITERATIONS.
    ------------------------------------------------

 NO OUTPUT CONTROL FOR STRESS PERIOD   11   TIME STEP    6
 
 SOLVING FOR HEAD 
                                                   Max.-Head-Change                         Max.-Flux-Residual
  Residual-Control   Outer-Iter.   Inner-Iter.     Column Row Layer    Maximum-Head-Change  Column Row Layer    Maximum-Flux-Residual          L2-NORM 
          0                 1           2             4   10     1      -0.6075367130E-01       4   10    1        -0.1936712635E+01      0.6004024764E+01
          0                 2           2             4   10     1       0.6020113724E-02       4   10    1         0.1936703540E+00      0.6004008042E+00
          0                 3           2             4   10     1      -0.5368895048E-03       4   10    1        -0.1743034295E-01      0.5403609551E-01
          0                 4           1             4   10     1       0.4261462623E-04       4   10    1         0.1396170765E-02      0.4328292228E-02

    ------------------------------------------------
       NWT REQUIRED            4 OUTER ITERATIONS 
       AND A TOTAL OF          7 INNER ITERATIONS.
    ------------------------------------------------

 NO OUTPUT CONTROL FOR STRESS PERIOD   11   TIME STEP    7
 
 SOLVING FOR HEAD 
                                                   Max.-Head-Change                         Max.-Flux-Residual
  Residual-Control   Outer-Iter.   Inner-Iter.     Column Row Layer    Maximum-Head-Change  Column Row Layer    Maximum-Flux-Residual          L2-NORM 
          0                 1           2             4    9     1      -0.6586065699E-01       4   10    1        -0.1887681891E+01      0.5875280101E+01
          0                 2           2             4    9     1       0.6526159255E-02       4   10    1         0.1887670621E+00      0.5875257305E+00
          0                 3           2             4    9     1      -0.5820200535E-03       4   10    1        -0.1698904876E-01      0.5287734469E-01
          0                 4           1             4    9     1       0.4619678027E-04       4   10    1         0.1360823062E-02      0.4235476207E-02

    ------------------------------------------------
       NWT REQUIRED            4 OUTER ITERATIONS 
       AND A TOTAL OF          7 INNER ITERATIONS.
    ------------------------------------------------

 NO OUTPUT CONTROL FOR STRESS PERIOD   11   TIME STEP    8
 
 SOLVING FOR HEAD 
                                                   Max.-Head-Change                         Max.-Flux-Residual
  Residual-Control   Outer-Iter.   Inner-Iter.     Column Row Layer    Maximum-Head-Change  Column Row Layer    Maximum-Flux-Residual          L2-NORM 
          0                 1           2             4    9     1      -0.7180626611E-01       4    9    1        -0.1860127306E+01      0.5744166184E+01
          0                 2           2             4    9     1       0.7115296016E-02       4    9    1         0.1860110103E+00      0.5744135882E+00
          0                 3           2             4    9     1      -0.6345609794E-03       4    9    1        -0.1674100989E-01      0.5169725911E-01
          0                 4           1             4    9     1       0.5036711910E-04       4    9    1         0.1340955097E-02      0.4140951267E-02

    ------------------------------------------------
       NWT REQUIRED            4 OUTER ITERATIONS 
       AND A TOTAL OF          7 INNER ITERATIONS.
    ------------------------------------------------

 NO OUTPUT CONTROL FOR STRESS PERIOD   11   TIME STEP    9
 
 SOLVING FOR HEAD 
                                                   Max.-Head-Change                         Max.-Flux-Residual
  Residual-Control   Outer-Iter.   Inner-Iter.     Column Row Layer    Maximum-Head-Change  Column Row Layer    Maximum-Flux-Residual          L2-NORM 
          0                 1           2             4    9     1      -0.7815271211E-01       4    9    1        -0.1843684067E+01      0.5611247954E+01
          0                 2           2             4    9     1       0.7744144443E-02       4    9    1         0.1843660304E+00      0.5611208573E+00
          0                 3           2             4    9     1      -0.6906435701E-03       4    9    1        -0.1659296813E-01      0.5050092210E-01
          0                 4           1             4    9     1       0.5481857053E-04       4    9    1         0.1329096899E-02      0.4045124579E-02

    ------------------------------------------------
       NWT REQUIRED            4 OUTER ITERATIONS 
       AND A TOTAL OF          7 INNER ITERATIONS.
    ------------------------------------------------

 OUTPUT CONTROL FOR STRESS PERIOD   11   TIME STEP   10
    PRINT BUDGET
    SAVE BUDGET

            WELLS   PERIOD   11   STEP  10
 WELL      1   LAYER   1   ROW     6   COL     4   RATE    -3.00000    
 WELL      2   LAYER   1   ROW     6   COL     5   RATE    -3.00000    
 WELL      3   LAYER   1   ROW     7   COL     4   RATE    -3.00000    
 WELL      4   LAYER   1   ROW     7   COL     5   RATE    -3.00000    
 WELL      5   LAYER   1   ROW     8   COL     4   RATE    -3.00000    
 WELL      6   LAYER   1   ROW     8   COL     5   RATE    -3.00000    
 WELL      7   LAYER   1   ROW     9   COL     4   RATE    -3.00000    
 WELL      8   LAYER   1   ROW     9   COL     5   RATE    -3.00000    
 WELL      9   LAYER   1   ROW    10   COL     4   RATE    -3.00000    
 WELL     10   LAYER   1   ROW    10   COL     5   RATE    -3.00000    

  HEAD DEP BOUNDS   PERIOD   11   STEP  10
 BOUNDARY      1   LAYER   1   ROW    13   COL     1   RATE    0.763041    
 BOUNDARY      2   LAYER   1   ROW    14   COL     9   RATE     2.37274    



 STREAM LISTING     PERIOD     11   STEP       10

 LAYER ROW COL. STREAM  RCH.  FLOW INTO     FLOW TO   FLOW OUT OF   OVRLND.     DIRECT     STREAM       STREAM     STREAM     STREAM   STREAMBED  STREAMBED
                SEG.NO.  NO.  STRM. RCH.    AQUIFER    STRM. RCH.    RUNOFF     PRECIP       ET          HEAD       DEPTH      WIDTH   CONDCTNC.   GRADIENT

   1    1    1     1     1    2.5000E+01  2.4515E-09   2.5000E+01  0.000E+00  0.000E+00  0.000E+00  1.09423E+03  1.178E+00  1.304E+01  5.867E-10  1.393E+00
   1    2    2     1     2    2.5000E+01  3.8085E-09   2.5000E+01  0.000E+00  0.000E+00  0.000E+00  1.08924E+03  1.177E+00  1.302E+01  9.117E-10  1.392E+00
   1    3    3     1     3    2.5000E+01  3.2661E-09   2.5000E+01  0.000E+00  0.000E+00  0.000E+00  1.08360E+03  1.178E+00  1.303E+01  7.818E-10  1.393E+00
   1    3    4     1     4    2.5000E+01  3.0219E-09   2.5000E+01  0.000E+00  0.000E+00  0.000E+00  1.07859E+03  1.178E+00  1.303E+01  7.233E-10  1.393E+00
   1    4    5     2     1    1.5000E+01  3.0290E-01   1.4697E+01  0.000E+00  0.000E+00  0.000E+00  1.07282E+03  8.834E-01  1.200E+01  7.800E-02  1.294E+00
   1    5    6     2     2    1.4697E+01  2.3243E-01   1.4465E+01  0.000E+00  0.000E+00  0.000E+00  1.06738E+03  8.738E-01  1.200E+01  6.000E-02  1.291E+00
   1    6    6     2     3    1.4465E+01  2.3193E-01   1.4233E+01  0.000E+00  0.000E+00  0.000E+00  1.06266E+03  8.654E-01  1.200E+01  6.000E-02  1.288E+00
   1    7    6     2     4    1.4233E+01  2.3142E-01   1.4001E+01  0.000E+00  0.000E+00  0.000E+00  1.05793E+03  8.570E-01  1.200E+01  6.000E-02  1.286E+00
   1    8    6     2     5    1.4001E+01  2.3091E-01   1.3770E+01  0.000E+00  0.000E+00  0.000E+00  1.05321E+03  8.486E-01  1.200E+01  6.000E-02  1.283E+00
   1    3    5     3     1    1.0000E+01  2.8252E-01   9.7175E+00  0.000E+00  0.000E+00  0.000E+00  1.07555E+03  1.909E+00  9.636E+00  7.227E-02  1.955E+00
   1    3    6     3     2    9.7175E+00  2.4905E-01   9.4684E+00  0.000E+00  0.000E+00  0.000E+00  1.07264E+03  1.727E+00  8.909E+00  6.682E-02  1.864E+00
   1    3    7     3     3    9.4684E+00  1.9718E-01   9.2712E+00  0.000E+00  0.000E+00  0.000E+00  1.06987E+03  1.555E+00  8.218E+00  5.547E-02  1.777E+00
   1    4    8     3     4    9.2712E+00  2.2567E-01   9.0456E+00  0.000E+00  0.000E+00  0.000E+00  1.06682E+03  1.364E+00  7.455E+00  6.709E-02  1.682E+00
   1    5    8     3     5    9.0456E+00  1.5790E-01   8.8877E+00  0.000E+00  0.000E+00  0.000E+00  1.06362E+03  1.164E+00  6.655E+00  4.991E-02  1.582E+00
   1    6    8     3     6    8.8877E+00  5.5980E-02   8.8317E+00  0.000E+00  0.000E+00  0.000E+00  1.06158E+03  1.036E+00  6.145E+00  1.844E-02  1.518E+00
   1    5   10     4     1    1.0000E+01  9.0919E-02   9.9091E+00  0.000E+00  0.000E+00  0.000E+00  1.07836E+03  6.368E-01  1.000E+01  2.500E-02  1.212E+00
   1    5    9     4     2    9.9091E+00  1.8158E-01   9.7275E+00  0.000E+00  0.000E+00  0.000E+00  1.07154E+03  6.315E-01  1.000E+01  5.000E-02  1.211E+00
   1    6    8     4     3    9.7275E+00  1.2689E-01   9.6006E+00  0.000E+00  0.000E+00  0.000E+00  1.06381E+03  6.256E-01  1.000E+01  3.500E-02  1.209E+00
   1    6    8     5     1    1.8432E+01  3.3262E-09   1.8432E+01  0.000E+00  0.000E+00  0.000E+00  1.05883E+03  8.293E-01  2.172E+01  8.686E-10  1.276E+00
   1    7    7     5     2    1.8432E+01  4.1514E-09   1.8432E+01  0.000E+00  0.000E+00  0.000E+00  1.05433E+03  8.286E-01  2.169E+01  1.084E-09  1.276E+00
   1    8    7     5     3    1.8432E+01  2.9126E-09   1.8432E+01  0.000E+00  0.000E+00  0.000E+00  1.05008E+03  8.296E-01  2.173E+01  7.606E-10  1.277E+00
   1    8    6     5     4    1.8432E+01  2.0836E-09   1.8432E+01  0.000E+00  0.000E+00  0.000E+00  1.04708E+03  8.303E-01  2.176E+01  5.440E-10  1.277E+00
   1    9    6     6     1    3.2203E+01  2.6507E-01   3.1938E+01  0.000E+00  0.000E+00  0.000E+00  1.04415E+03  1.418E+00  1.200E+01  6.000E-02  1.473E+00
   1   10    7     6     2    3.1938E+01  2.6465E-01   3.1673E+01  0.000E+00  0.000E+00  0.000E+00  1.03959E+03  1.411E+00  1.200E+01  6.000E-02  1.470E+00
   1   11    7     6     3    3.1673E+01  2.6423E-01   3.1409E+01  0.000E+00  0.000E+00  0.000E+00  1.03504E+03  1.404E+00  1.200E+01  6.000E-02  1.468E+00
   1   12    7     6     4    3.1409E+01  2.6380E-01   3.1145E+01  0.000E+00  0.000E+00  0.000E+00  1.03049E+03  1.397E+00  1.200E+01  6.000E-02  1.466E+00
   1   13    7     6     5    3.1145E+01  1.0540E-01   3.1040E+01  0.000E+00  0.000E+00  0.000E+00  1.02730E+03  1.392E+00  1.200E+01  2.400E-02  1.464E+00
   1   14    9     7     1    1.5000E+02  2.9539E-14   1.5000E+02  0.000E+00  0.000E+00  0.000E+00  1.03986E+03  2.283E+00  5.528E+01  5.591E-15  1.761E+00
   1   13    8     7     2    1.5000E+02  3.2486E-13   1.5000E+02  0.000E+00  0.000E+00  0.000E+00  1.03478E+03  2.283E+00  5.527E+01  6.150E-14  1.761E+00
   1   13    7     7     3    1.5000E+02  2.9539E-14   1.5000E+02  0.000E+00  0.000E+00  0.000E+00  1.02970E+03  2.283E+00  5.528E+01  5.591E-15  1.761E+00
   1   13    6     8     1    1.8104E+02  0.0000E+00   1.8104E+02  0.000E+00  0.000E+00  0.000E+00  1.02490E+03  3.023E+00  4.383E+01  0.000E+00  2.008E+00
   1   13    5     8     2    1.8104E+02  2.6787E-12   1.8104E+02  0.000E+00  0.000E+00  0.000E+00  1.01864E+03  3.014E+00  4.371E+01  4.454E-13  2.005E+00
   1   13    4     8     3    1.8104E+02  2.6787E-12   1.8104E+02  0.000E+00  0.000E+00  0.000E+00  1.01239E+03  3.014E+00  4.371E+01  4.454E-13  2.005E+00
   1   13    3     8     4    1.8104E+02  2.6787E-12   1.8104E+02  0.000E+00  0.000E+00  0.000E+00  1.00614E+03  3.014E+00  4.371E+01  4.454E-13  2.005E+00
   1   13    2     8     5    1.8104E+02  2.6787E-12   1.8104E+02  0.000E+00  0.000E+00  0.000E+00  9.99889E+02  3.014E+00  4.371E+01  4.454E-13  2.005E+00
   1   13    1     8     6    1.8104E+02  1.6099E-08   1.8104E+02  0.000E+00  0.000E+00  0.000E+00  9.94893E+02  3.018E+00  4.376E+01  2.675E-09  2.006E+00



 UBDSV3 SAVING "     NETRECHARGE" ON UNIT 100 AT TIME STEP 10, STRESS PERIOD  11
 UBDSV3 SAVING "    NETDISCHARGE" ON UNIT 101 AT TIME STEP 10, STRESS PERIOD  11
 UBDSV3 SAVING "           GW ET" ON UNIT  61 AT TIME STEP 10, STRESS PERIOD  11
 UBDSV3 SAVING "    UZF RECHARGE" ON UNIT  61 AT TIME STEP 10, STRESS PERIOD  11
 UBDSV3 SAVING " SURFACE LEAKAGE" ON UNIT  61 AT TIME STEP 10, STRESS PERIOD  11
 UBDSV3 SAVING "       HORT+DUNN" ON UNIT  61 AT TIME STEP 10, STRESS PERIOD  11
 UBDSV3 SAVING "  STORAGE CHANGE" ON UNIT  61 AT TIME STEP 10, STRESS PERIOD  11


UNSATURATED ZONE PACKAGE VOLUMETRIC BUDGET FOR  TIME STEP    10 STRESS PERIOD   11
  ------------------------------------------------------------------------------



     CUMULATIVE VOLUMES      L**3       RATES FOR THIS TIME STEP      L**3/T
     ------------------                 ------------------------

           IN:                                      IN:
           ---                                      ---
        INFILTRATION =    80034869.4355          INFILTRATION =           2.9000

          OUT:                                     OUT:
          ----                                     ----
              UZF ET =    24770072.5037                UZF ET =           1.1603
        UZF RECHARGE =     7621246.6355          UZF RECHARGE =       0.0000E+00

            IN - OUT =    47643550.2964              IN - OUT =           1.7397

          STORAGE:                                 STORAGE:
          --------                                 --------
      STORAGE CHANGE =    47643550.0670        STORAGE CHANGE =           1.7397

 PERCENT DISCREPANCY IS DIFFERENCE BETWEEN IN-OUT MINUS CHANGE IN STORAGE
 DIVIDED BY THE AVERAGE OF IN AND OUT TIMES 100

 PERCENT DISCREPANCY =           0.00     PERCENT DISCREPANCY =           0.00






1
  VOLUMETRIC BUDGET FOR ENTIRE MODEL AT END OF TIME STEP   10, STRESS PERIOD  11
  ------------------------------------------------------------------------------

     CUMULATIVE VOLUMES      L**3       RATES FOR THIS TIME STEP      L**3/T
     ------------------                 ------------------------

           IN:                                      IN:
           ---                                      ---
             STORAGE =   467917536.0000               STORAGE =          22.9668
       CONSTANT HEAD =           0.0000         CONSTANT HEAD =           0.0000
               WELLS =           0.0000                 WELLS =           0.0000
     HEAD DEP BOUNDS =    86383784.0000       HEAD DEP BOUNDS =           3.1358
      STREAM LEAKAGE =   109459312.0000        STREAM LEAKAGE =           3.9604
        UZF RECHARGE =     7621252.0000          UZF RECHARGE =           0.0000
               GW ET =           0.0000                 GW ET =           0.0000
     SURFACE LEAKAGE =           0.0000       SURFACE LEAKAGE =           0.0000

            TOTAL IN =   671381888.0000              TOTAL IN =          30.0630

          OUT:                                     OUT:
          ----                                     ----
             STORAGE =   132528072.0000               STORAGE =       6.4182E-02
       CONSTANT HEAD =           0.0000         CONSTANT HEAD =           0.0000
               WELLS =   538867008.0000                 WELLS =          30.0000
     HEAD DEP BOUNDS =           0.0000       HEAD DEP BOUNDS =           0.0000
      STREAM LEAKAGE =           0.0000        STREAM LEAKAGE =           0.0000
        UZF RECHARGE =           0.0000          UZF RECHARGE =           0.0000
               GW ET =           0.0000                 GW ET =           0.0000
     SURFACE LEAKAGE =           0.0000       SURFACE LEAKAGE =           0.0000

           TOTAL OUT =   671395072.0000             TOTAL OUT =          30.0642

            IN - OUT =      -13184.0000              IN - OUT =      -1.1559E-03

 PERCENT DISCREPANCY =          -0.00     PERCENT DISCREPANCY =          -0.00






         TIME SUMMARY AT END OF TIME STEP   10 IN STRESS PERIOD   11
                    SECONDS     MINUTES      HOURS       DAYS        YEARS
                    -----------------------------------------------------------
   TIME STEP LENGTH 1.95033E+05  3250.6      54.176      2.2573     6.18023E-03
 STRESS PERIOD TIME 1.31823E+06  21971.      366.18      15.257     4.17723E-02
         TOTAL TIME 2.75982E+07 4.59970E+05  7666.2      319.42     0.87454    
1
 
 SOLVING FOR HEAD 
                                                   Max.-Head-Change                         Max.-Flux-Residual
  Residual-Control   Outer-Iter.   Inner-Iter.     Column Row Layer    Maximum-Head-Change  Column Row Layer    Maximum-Flux-Residual          L2-NORM 
          0                 1           2             4    9     1      -0.8489487121E-01       4    9    1        -0.1824211625E+01      0.5477100404E+01
          0                 2           2             4    9     1       0.8412194590E-02       4    9    1         0.1824179839E+00      0.5477050261E+00
          0                 3           2             4    9     1      -0.7502223687E-03       4    9    1        -0.1641765180E-01      0.4929350770E-01
          0                 4           1             4    9     1       0.5954752666E-04       4    9    1         0.1315053998E-02      0.3948410580E-02

    ------------------------------------------------
       NWT REQUIRED            4 OUTER ITERATIONS 
       AND A TOTAL OF          7 INNER ITERATIONS.
    ------------------------------------------------

 NO OUTPUT CONTROL FOR STRESS PERIOD   11   TIME STEP   11
 
 SOLVING FOR HEAD 
                                                   Max.-Head-Change                         Max.-Flux-Residual
  Residual-Control   Outer-Iter.   Inner-Iter.     Column Row Layer    Maximum-Head-Change  Column Row Layer    Maximum-Flux-Residual          L2-NORM 
          0                 1           2             4    9     1      -0.9202040507E-01       4    9    1        -0.1801439848E+01      0.5342305190E+01
          0                 2           2             4    9     1       0.9118221225E-02       4    9    1         0.1801398443E+00      0.5342242534E+00
          0                 3           2             4    9     1      -0.8131881322E-03       4    9    1        -0.1621262865E-01      0.4808025029E-01
          0                 4           1             4    9     1       0.6454531556E-04       4    9    1         0.1298631562E-02      0.3851228536E-02

    ------------------------------------------------
       NWT REQUIRED            4 OUTER ITERATIONS 
       AND A TOTAL OF          7 INNER ITERATIONS.
    ------------------------------------------------

 NO OUTPUT CONTROL FOR STRESS PERIOD   11   TIME STEP   12
 
 SOLVING FOR HEAD 
                                                   Max.-Head-Change                         Max.-Flux-Residual
  Residual-Control   Outer-Iter.   Inner-Iter.     Column Row Layer    Maximum-Head-Change  Column Row Layer    Maximum-Flux-Residual          L2-NORM 
          0                 1           2             4    9     1      -0.9950913446E-01       4    9    1        -0.1775130308E+01      0.5207417159E+01
          0                 2           2             4    9     1       0.9860221780E-02       4    9    1         0.1775077591E+00      0.5207340218E+00
          0                 3           2             4    9     1      -0.8793622966E-03       4    9    1        -0.1597575206E-01      0.4686614333E-01
          0                 4           1             4    9     1       0.6979776418E-04       4    9    1         0.1279657654E-02      0.3753978437E-02

    ------------------------------------------------
       NWT REQUIRED            4 OUTER ITERATIONS 
       AND A TOTAL OF          7 INNER ITERATIONS.
    ------------------------------------------------

 NO OUTPUT CONTROL FOR STRESS PERIOD   11   TIME STEP   13
 
 SOLVING FOR HEAD 
                                                   Max.-Head-Change                         Max.-Flux-Residual
  Residual-Control   Outer-Iter.   Inner-Iter.     Column Row Layer    Maximum-Head-Change  Column Row Layer    Maximum-Flux-Residual          L2-NORM 
          0                 1           2             4    9     1      -0.1073323851E+00       4    9    1        -0.1745083369E+01      0.5072957365E+01
          0                 2           2             4    9     1       0.1063535158E-01       4    9    1         0.1745017600E+00      0.5072864403E+00
          0                 3           2             4    9     1      -0.9484911979E-03       4    9    1        -0.1570522491E-01      0.4565587657E-01
          0                 4           1             4    9     1       0.7528473795E-04       4    9    1         0.1257988316E-02      0.3657035915E-02

    ------------------------------------------------
       NWT REQUIRED            4 OUTER ITERATIONS 
       AND A TOTAL OF          7 INNER ITERATIONS.
    ------------------------------------------------

 NO OUTPUT CONTROL FOR STRESS PERIOD   11   TIME STEP   14
 
 SOLVING FOR HEAD 
                                                   Max.-Head-Change                         Max.-Flux-Residual
  Residual-Control   Outer-Iter.   Inner-Iter.     Column Row Layer    Maximum-Head-Change  Column Row Layer    Maximum-Flux-Residual          L2-NORM 
          0                 1           2             4    8     1      -0.1156984383E+00       4    9    1        -0.1711162411E+01      0.4939408833E+01
          0                 2           2             4    8     1       0.1146439653E-01       4    9    1         0.1711081862E+00      0.4939298208E+00
          0                 3           2             4    8     1      -0.1022427120E-02       4    9    1        -0.1539981775E-01      0.4445379801E-01
          0                 4           1             4    8     1       0.8115326917E-04       4    9    1         0.1233525083E-02      0.3560749259E-02

    ------------------------------------------------
       NWT REQUIRED            4 OUTER ITERATIONS 
       AND A TOTAL OF          7 INNER ITERATIONS.
    ------------------------------------------------

 OUTPUT CONTROL FOR STRESS PERIOD   11   TIME STEP   15
    PRINT BUDGET
    PRINT HEAD FOR ALL LAYERS
    SAVE HEAD FOR ALL LAYERS
    SAVE BUDGET

            WELLS   PERIOD   11   STEP  15
 WELL      1   LAYER   1   ROW     6   COL     4   RATE    -3.00000    
 WELL      2   LAYER   1   ROW     6   COL     5   RATE    -3.00000    
 WELL      3   LAYER   1   ROW     7   COL     4   RATE    -3.00000    
 WELL      4   LAYER   1   ROW     7   COL     5   RATE    -3.00000    
 WELL      5   LAYER   1   ROW     8   COL     4   RATE    -3.00000    
 WELL      6   LAYER   1   ROW     8   COL     5   RATE    -3.00000    
 WELL      7   LAYER   1   ROW     9   COL     4   RATE    -3.00000    
 WELL      8   LAYER   1   ROW     9   COL     5   RATE    -3.00000    
 WELL      9   LAYER   1   ROW    10   COL     4   RATE    -3.00000    
 WELL     10   LAYER   1   ROW    10   COL     5   RATE    -3.00000    

  HEAD DEP BOUNDS   PERIOD   11   STEP  15
 BOUNDARY      1   LAYER   1   ROW    13   COL     1   RATE    0.763395    
 BOUNDARY      2   LAYER   1   ROW    14   COL     9   RATE     2.37302    



 STREAM LISTING     PERIOD     11   STEP       15

 LAYER ROW COL. STREAM  RCH.  FLOW INTO     FLOW TO   FLOW OUT OF   OVRLND.     DIRECT     STREAM       STREAM     STREAM     STREAM   STREAMBED  STREAMBED
                SEG.NO.  NO.  STRM. RCH.    AQUIFER    STRM. RCH.    RUNOFF     PRECIP       ET          HEAD       DEPTH      WIDTH   CONDCTNC.   GRADIENT

   1    1    1     1     1    2.5000E+01  2.4515E-09   2.5000E+01  0.000E+00  0.000E+00  0.000E+00  1.09423E+03  1.178E+00  1.304E+01  5.867E-10  1.393E+00
   1    2    2     1     2    2.5000E+01  3.8085E-09   2.5000E+01  0.000E+00  0.000E+00  0.000E+00  1.08924E+03  1.177E+00  1.302E+01  9.117E-10  1.392E+00
   1    3    3     1     3    2.5000E+01  3.2661E-09   2.5000E+01  0.000E+00  0.000E+00  0.000E+00  1.08360E+03  1.178E+00  1.303E+01  7.818E-10  1.393E+00
   1    3    4     1     4    2.5000E+01  3.0219E-09   2.5000E+01  0.000E+00  0.000E+00  0.000E+00  1.07859E+03  1.178E+00  1.303E+01  7.233E-10  1.393E+00
   1    4    5     2     1    1.5000E+01  3.0290E-01   1.4697E+01  0.000E+00  0.000E+00  0.000E+00  1.07282E+03  8.834E-01  1.200E+01  7.800E-02  1.294E+00
   1    5    6     2     2    1.4697E+01  2.3243E-01   1.4465E+01  0.000E+00  0.000E+00  0.000E+00  1.06738E+03  8.738E-01  1.200E+01  6.000E-02  1.291E+00
   1    6    6     2     3    1.4465E+01  2.3193E-01   1.4233E+01  0.000E+00  0.000E+00  0.000E+00  1.06266E+03  8.654E-01  1.200E+01  6.000E-02  1.288E+00
   1    7    6     2     4    1.4233E+01  2.3142E-01   1.4001E+01  0.000E+00  0.000E+00  0.000E+00  1.05793E+03  8.570E-01  1.200E+01  6.000E-02  1.286E+00
   1    8    6     2     5    1.4001E+01  2.3091E-01   1.3770E+01  0.000E+00  0.000E+00  0.000E+00  1.05321E+03  8.486E-01  1.200E+01  6.000E-02  1.283E+00
   1    3    5     3     1    1.0000E+01  2.8252E-01   9.7175E+00  0.000E+00  0.000E+00  0.000E+00  1.07555E+03  1.909E+00  9.636E+00  7.227E-02  1.955E+00
   1    3    6     3     2    9.7175E+00  2.4905E-01   9.4684E+00  0.000E+00  0.000E+00  0.000E+00  1.07264E+03  1.727E+00  8.909E+00  6.682E-02  1.864E+00
   1    3    7     3     3    9.4684E+00  1.9718E-01   9.2712E+00  0.000E+00  0.000E+00  0.000E+00  1.06987E+03  1.555E+00  8.218E+00  5.547E-02  1.777E+00
   1    4    8     3     4    9.2712E+00  2.2567E-01   9.0456E+00  0.000E+00  0.000E+00  0.000E+00  1.06682E+03  1.364E+00  7.455E+00  6.709E-02  1.682E+00
   1    5    8     3     5    9.0456E+00  1.5790E-01   8.8877E+00  0.000E+00  0.000E+00  0.000E+00  1.06362E+03  1.164E+00  6.655E+00  4.991E-02  1.582E+00
   1    6    8     3     6    8.8877E+00  5.5980E-02   8.8317E+00  0.000E+00  0.000E+00  0.000E+00  1.06158E+03  1.036E+00  6.145E+00  1.844E-02  1.518E+00
   1    5   10     4     1    1.0000E+01  9.0919E-02   9.9091E+00  0.000E+00  0.000E+00  0.000E+00  1.07836E+03  6.368E-01  1.000E+01  2.500E-02  1.212E+00
   1    5    9     4     2    9.9091E+00  1.8158E-01   9.7275E+00  0.000E+00  0.000E+00  0.000E+00  1.07154E+03  6.315E-01  1.000E+01  5.000E-02  1.211E+00
   1    6    8     4     3    9.7275E+00  1.2689E-01   9.6006E+00  0.000E+00  0.000E+00  0.000E+00  1.06381E+03  6.256E-01  1.000E+01  3.500E-02  1.209E+00
   1    6    8     5     1    1.8432E+01  3.3262E-09   1.8432E+01  0.000E+00  0.000E+00  0.000E+00  1.05883E+03  8.293E-01  2.172E+01  8.686E-10  1.276E+00
   1    7    7     5     2    1.8432E+01  4.1514E-09   1.8432E+01  0.000E+00  0.000E+00  0.000E+00  1.05433E+03  8.286E-01  2.169E+01  1.084E-09  1.276E+00
   1    8    7     5     3    1.8432E+01  2.9126E-09   1.8432E+01  0.000E+00  0.000E+00  0.000E+00  1.05008E+03  8.296E-01  2.173E+01  7.606E-10  1.277E+00
   1    8    6     5     4    1.8432E+01  2.0836E-09   1.8432E+01  0.000E+00  0.000E+00  0.000E+00  1.04708E+03  8.303E-01  2.176E+01  5.440E-10  1.277E+00
   1    9    6     6     1    3.2203E+01  2.6507E-01   3.1938E+01  0.000E+00  0.000E+00  0.000E+00  1.04415E+03  1.418E+00  1.200E+01  6.000E-02  1.473E+00
   1   10    7     6     2    3.1938E+01  2.6465E-01   3.1673E+01  0.000E+00  0.000E+00  0.000E+00  1.03959E+03  1.411E+00  1.200E+01  6.000E-02  1.470E+00
   1   11    7     6     3    3.1673E+01  2.6423E-01   3.1409E+01  0.000E+00  0.000E+00  0.000E+00  1.03504E+03  1.404E+00  1.200E+01  6.000E-02  1.468E+00
   1   12    7     6     4    3.1409E+01  2.6380E-01   3.1145E+01  0.000E+00  0.000E+00  0.000E+00  1.03049E+03  1.397E+00  1.200E+01  6.000E-02  1.466E+00
   1   13    7     6     5    3.1145E+01  1.0540E-01   3.1040E+01  0.000E+00  0.000E+00  0.000E+00  1.02730E+03  1.392E+00  1.200E+01  2.400E-02  1.464E+00
   1   14    9     7     1    1.5000E+02  2.9539E-14   1.5000E+02  0.000E+00  0.000E+00  0.000E+00  1.03986E+03  2.283E+00  5.528E+01  5.591E-15  1.761E+00
   1   13    8     7     2    1.5000E+02  3.2486E-13   1.5000E+02  0.000E+00  0.000E+00  0.000E+00  1.03478E+03  2.283E+00  5.527E+01  6.150E-14  1.761E+00
   1   13    7     7     3    1.5000E+02  2.9539E-14   1.5000E+02  0.000E+00  0.000E+00  0.000E+00  1.02970E+03  2.283E+00  5.528E+01  5.591E-15  1.761E+00
   1   13    6     8     1    1.8104E+02  0.0000E+00   1.8104E+02  0.000E+00  0.000E+00  0.000E+00  1.02490E+03  3.023E+00  4.383E+01  0.000E+00  2.008E+00
   1   13    5     8     2    1.8104E+02  2.6787E-12   1.8104E+02  0.000E+00  0.000E+00  0.000E+00  1.01864E+03  3.014E+00  4.371E+01  4.454E-13  2.005E+00
   1   13    4     8     3    1.8104E+02  2.6787E-12   1.8104E+02  0.000E+00  0.000E+00  0.000E+00  1.01239E+03  3.014E+00  4.371E+01  4.454E-13  2.005E+00
   1   13    3     8     4    1.8104E+02  2.6787E-12   1.8104E+02  0.000E+00  0.000E+00  0.000E+00  1.00614E+03  3.014E+00  4.371E+01  4.454E-13  2.005E+00
   1   13    2     8     5    1.8104E+02  2.6787E-12   1.8104E+02  0.000E+00  0.000E+00  0.000E+00  9.99889E+02  3.014E+00  4.371E+01  4.454E-13  2.005E+00
   1   13    1     8     6    1.8104E+02  1.6099E-08   1.8104E+02  0.000E+00  0.000E+00  0.000E+00  9.94893E+02  3.018E+00  4.376E+01  2.675E-09  2.006E+00



 UBDSV3 SAVING "     NETRECHARGE" ON UNIT 100 AT TIME STEP 15, STRESS PERIOD  11
 UBDSV3 SAVING "    NETDISCHARGE" ON UNIT 101 AT TIME STEP 15, STRESS PERIOD  11
 UBDSV3 SAVING "           GW ET" ON UNIT  61 AT TIME STEP 15, STRESS PERIOD  11
 UBDSV3 SAVING "    UZF RECHARGE" ON UNIT  61 AT TIME STEP 15, STRESS PERIOD  11
 UBDSV3 SAVING " SURFACE LEAKAGE" ON UNIT  61 AT TIME STEP 15, STRESS PERIOD  11
 UBDSV3 SAVING "       HORT+DUNN" ON UNIT  61 AT TIME STEP 15, STRESS PERIOD  11
 UBDSV3 SAVING "  STORAGE CHANGE" ON UNIT  61 AT TIME STEP 15, STRESS PERIOD  11


UNSATURATED ZONE PACKAGE VOLUMETRIC BUDGET FOR  TIME STEP    15 STRESS PERIOD   11
  ------------------------------------------------------------------------------



     CUMULATIVE VOLUMES      L**3       RATES FOR THIS TIME STEP      L**3/T
     ------------------                 ------------------------

           IN:                                      IN:
           ---                                      ---
        INFILTRATION =    83833191.7871          INFILTRATION =           2.9000

          OUT:                                     OUT:
          ----                                     ----
              UZF ET =    26301493.9250                UZF ET =           1.1749
        UZF RECHARGE =     7621246.6355          UZF RECHARGE =       0.0000E+00

            IN - OUT =    49910451.2266              IN - OUT =           1.7251

          STORAGE:                                 STORAGE:
          --------                                 --------
      STORAGE CHANGE =    49910451.0296        STORAGE CHANGE =           1.7251

 PERCENT DISCREPANCY IS DIFFERENCE BETWEEN IN-OUT MINUS CHANGE IN STORAGE
 DIVIDED BY THE AVERAGE OF IN AND OUT TIMES 100

 PERCENT DISCREPANCY =           0.00     PERCENT DISCREPANCY =           0.00






1
              HEAD IN LAYER   1 AT END OF TIME STEP  15 IN STRESS PERIOD   11
  ---------------------------------------------------------------------------

           1       2       3       4       5       6       7       8       9      10
 ...................................................................................
   1  1003.29 1000.43 6999.00 6999.00 6999.00 6999.00 6999.00 6999.00 6999.00 6999.00
   2  1000.85  958.74  958.15 6999.00 6999.00  964.31  964.78  965.17 6999.00 6999.00
   3  6999.00  957.83  957.07  956.79  957.76  959.27  960.59  961.48 6999.00 6999.00
   4   958.97  957.41  956.39  955.99  956.27  956.67  957.99  960.54  961.91 6999.00
   5   958.61  956.51  955.22  954.72  955.10  955.97  956.75  957.89  959.57  964.19
   6   958.22  955.79  953.95  952.64  953.19  955.15  956.21  957.24  958.86  972.11
   7   957.99  955.35  953.20  951.80  952.48  954.65  955.79  956.72  960.67 6999.00
   8  6999.00  955.44  953.09  951.69  952.44  954.59  955.66  957.18  962.23 6999.00
   9  6999.00  956.11  953.83  952.42  953.09  955.15  956.28  958.17  963.36 6999.00
  10  6999.00  957.41  955.36  953.91  954.40  956.22  957.43  959.46  963.63  967.23
  11  6999.00  959.36  957.65  956.69  956.97  957.90  959.16  961.44  965.77 6999.00
  12   965.85  961.45  959.43  958.56  958.68  959.53  960.99  964.50  970.76 6999.00
  13   967.91  962.71  960.54  959.71  959.81  960.88  963.23  967.76  976.52 6999.00
  14  6999.00  963.87  961.36  961.04  961.41  962.88  966.24  973.46  982.55 6999.00
  15  6999.00 6999.00  965.39  965.39  965.67  966.20 6999.00 6999.00 6999.00 6999.00

 HEAD WILL BE SAVED ON UNIT   58 AT END OF TIME STEP   15, STRESS PERIOD   11
1
  VOLUMETRIC BUDGET FOR ENTIRE MODEL AT END OF TIME STEP   15, STRESS PERIOD  11
  ------------------------------------------------------------------------------

     CUMULATIVE VOLUMES      L**3       RATES FOR THIS TIME STEP      L**3/T
     ------------------                 ------------------------

           IN:                                      IN:
           ---                                      ---
             STORAGE =   497918944.0000               STORAGE =          22.9020
       CONSTANT HEAD =           0.0000         CONSTANT HEAD =           0.0000
               WELLS =           0.0000                 WELLS =           0.0000
     HEAD DEP BOUNDS =    90491424.0000       HEAD DEP BOUNDS =           3.1364
      STREAM LEAKAGE =   114646560.0000        STREAM LEAKAGE =           3.9604
        UZF RECHARGE =     7621252.0000          UZF RECHARGE =           0.0000
               GW ET =           0.0000                 GW ET =           0.0000
     SURFACE LEAKAGE =           0.0000       SURFACE LEAKAGE =           0.0000

            TOTAL IN =   710678144.0000              TOTAL IN =          29.9988

          OUT:                                     OUT:
          ----                                     ----
             STORAGE =   132532896.0000               STORAGE =           0.0000
       CONSTANT HEAD =           0.0000         CONSTANT HEAD =           0.0000
               WELLS =   578160000.0000                 WELLS =          30.0000
     HEAD DEP BOUNDS =           0.0000       HEAD DEP BOUNDS =           0.0000
      STREAM LEAKAGE =           0.0000        STREAM LEAKAGE =           0.0000
        UZF RECHARGE =           0.0000          UZF RECHARGE =           0.0000
               GW ET =           0.0000                 GW ET =           0.0000
     SURFACE LEAKAGE =           0.0000       SURFACE LEAKAGE =           0.0000

           TOTAL OUT =   710692864.0000             TOTAL OUT =          30.0000

            IN - OUT =      -14720.0000              IN - OUT =      -1.1578E-03

 PERCENT DISCREPANCY =          -0.00     PERCENT DISCREPANCY =          -0.00






         TIME SUMMARY AT END OF TIME STEP   15 IN STRESS PERIOD   11
                    SECONDS     MINUTES      HOURS       DAYS        YEARS
                    -----------------------------------------------------------
   TIME STEP LENGTH 3.14103E+05  5235.0      87.251      3.6354     9.95332E-03
 STRESS PERIOD TIME 2.62800E+06  43800.      730.00      30.417     8.32763E-02
         TOTAL TIME 2.89080E+07 4.81800E+05  8030.0      334.58     0.91604    
1
1
                            STRESS PERIOD NO.   12, LENGTH =   2628000.    
                            -----------------------------------------------

                              NUMBER OF TIME STEPS =    15

                               MULTIPLIER FOR DELT =     1.100

                            INITIAL TIME STEP SIZE =   82713.07    

      0 WELLS

 REUSING NON-PARAMETER GHB CELLS FROM LAST STRESS PERIOD

      2 GHB CELLS

 REUSING STREAM SEGMENT DATA FROM LAST STRESS PERIOD



            AREAL INFILTRATION RATE
 READING ON UNIT   19 WITH FORMAT: (10F4.0)            

            1           2           3           4           5           6           7           8           9          10
 ........................................................................................................................
   1   1.0000E-09  2.0000E-09   0.000       0.000       0.000       0.000       0.000       0.000       0.000       0.000    
   2   2.0000E-09  1.0000E-09  2.0000E-09   0.000       0.000      8.0000E-09  8.0000E-09  5.0000E-09   0.000       0.000    
   3    0.000      5.0000E-09  1.0000E-09  1.0000E-09  8.0000E-09  8.0000E-09  5.0000E-09  5.0000E-09   0.000       0.000    
   4   8.0000E-09  5.0000E-09  1.0000E-09  1.0000E-09  1.0000E-09  1.0000E-09  1.0000E-09  1.0000E-09  2.0000E-09   0.000    
   5   8.0000E-09  5.0000E-09  1.0000E-09  1.0000E-09  1.0000E-09  1.0000E-09  1.0000E-09  1.0000E-09  1.0000E-09  1.0000E-09
   6   8.0000E-09  5.0000E-09  5.0000E-09  2.0000E-09  2.0000E-09  1.0000E-09  1.0000E-09  1.0000E-09  1.0000E-09  5.0000E-09
   7   8.0000E-09  5.0000E-09  5.0000E-09  2.0000E-09  2.0000E-09  1.0000E-09  1.0000E-09  2.0000E-09  2.0000E-09   0.000    
   8    0.000      5.0000E-09  5.0000E-09  2.0000E-09  2.0000E-09  1.0000E-09  1.0000E-09  2.0000E-09  5.0000E-09   0.000    
   9    0.000      5.0000E-09  5.0000E-09  2.0000E-09  2.0000E-09  1.0000E-09  1.0000E-09  2.0000E-09  5.0000E-09   0.000    
  10    0.000      5.0000E-09  5.0000E-09  2.0000E-09  2.0000E-09  1.0000E-09  1.0000E-09  2.0000E-09  5.0000E-09  8.0000E-09
  11    0.000      1.0000E-09  1.0000E-09  1.0000E-09  1.0000E-09  1.0000E-09  1.0000E-09  2.0000E-09  5.0000E-09   0.000    
  12   1.0000E-09  1.0000E-09  1.0000E-09  1.0000E-09  1.0000E-09  1.0000E-09  1.0000E-09  1.0000E-09  2.0000E-09   0.000    
  13   1.0000E-09  1.0000E-09  2.0000E-09  2.0000E-09  2.0000E-09  2.0000E-09  2.0000E-09  1.0000E-09  1.0000E-09   0.000    
  14    0.000      2.0000E-09  5.0000E-09  5.0000E-09  5.0000E-09  5.0000E-09  5.0000E-09  2.0000E-09  1.0000E-09   0.000    
  15    0.000       0.000      8.0000E-09  8.0000E-09  8.0000E-09  8.0000E-09   0.000       0.000       0.000       0.000    

USING ET RATE FROM PREVIOUS STRESS PERIOD. CURRENT PERIOD IS:      12

 USING ET EXTINCTION DEPTH FROM PREVIOUS STRESS PERIOD. CURRENT PERIOD IS:      12

 USING EXTINCTION WATER CONTENT FROM PREVIOUS STRESS PERIOD. CURRENT PERIOD IS:      12
 
 SOLVING FOR HEAD 
                                                   Max.-Head-Change                         Max.-Flux-Residual
  Residual-Control   Outer-Iter.   Inner-Iter.     Column Row Layer    Maximum-Head-Change  Column Row Layer    Maximum-Flux-Residual          L2-NORM 
          0                 1           2             5   10     1       0.3114509394E-01       5   10    1         0.1769634516E+01      0.4977612848E+01
          0                 2           2             5   10     1      -0.3086195667E-02       5   10    1        -0.1769634424E+00      0.4977607907E+00
          0                 3           2             5   10     1       0.2752348942E-03       5   10    1         0.1592671188E-01      0.4479848158E-01
          0                 4           1             5   10     1      -0.2184626887E-04       5   10    1        -0.1275729937E-02      0.3588359242E-02

    ------------------------------------------------
       NWT REQUIRED            4 OUTER ITERATIONS 
       AND A TOTAL OF          7 INNER ITERATIONS.
    ------------------------------------------------

 NO OUTPUT CONTROL FOR STRESS PERIOD   12   TIME STEP    1
 
 SOLVING FOR HEAD 
                                                   Max.-Head-Change                         Max.-Flux-Residual
  Residual-Control   Outer-Iter.   Inner-Iter.     Column Row Layer    Maximum-Head-Change  Column Row Layer    Maximum-Flux-Residual          L2-NORM 
          0                 1           2             5   10     1       0.3312996042E-01       5   10    1         0.1715216005E+01      0.4890237827E+01
          0                 2           2             5   10     1      -0.3282877492E-02       5   10    1        -0.1715215643E+00      0.4890232701E+00
          0                 3           2             5   10     1       0.2927754910E-03       5   10    1         0.1543694305E-01      0.4401210479E-01
          0                 4           1             5   10     1      -0.2323852202E-04       5   10    1        -0.1236499455E-02      0.3525370446E-02

    ------------------------------------------------
       NWT REQUIRED            4 OUTER ITERATIONS 
       AND A TOTAL OF          7 INNER ITERATIONS.
    ------------------------------------------------

 NO OUTPUT CONTROL FOR STRESS PERIOD   12   TIME STEP    2
 
 SOLVING FOR HEAD 
                                                   Max.-Head-Change                         Max.-Flux-Residual
  Residual-Control   Outer-Iter.   Inner-Iter.     Column Row Layer    Maximum-Head-Change  Column Row Layer    Maximum-Flux-Residual          L2-NORM 
          0                 1           2             5   10     1       0.3515782667E-01       5   10    1         0.1658663187E+01      0.4798638414E+01
          0                 2           2             5   10     1      -0.3483820082E-02       5   10    1        -0.1658662527E+00      0.4798633367E+00
          0                 3           2             5   10     1       0.3106960751E-03       5   10    1         0.1492796525E-01      0.4318771062E-01
          0                 4           1             5   10     1      -0.2466093524E-04       5   10    1        -0.1195730309E-02      0.3459336457E-02

    ------------------------------------------------
       NWT REQUIRED            4 OUTER ITERATIONS 
       AND A TOTAL OF          7 INNER ITERATIONS.
    ------------------------------------------------

 NO OUTPUT CONTROL FOR STRESS PERIOD   12   TIME STEP    3
 
 SOLVING FOR HEAD 
                                                   Max.-Head-Change                         Max.-Flux-Residual
  Residual-Control   Outer-Iter.   Inner-Iter.     Column Row Layer    Maximum-Head-Change  Column Row Layer    Maximum-Flux-Residual          L2-NORM 
          0                 1           2             5   10     1       0.3721885680E-01       5   10    1         0.1600164712E+01      0.4703445052E+01
          0                 2           2             5   10     1      -0.3688048774E-02       5   10    1        -0.1600163727E+00      0.4703440408E+00
          0                 3           2             5   10     1       0.3289097236E-03       5   10    1         0.1440147631E-01      0.4233097349E-01
          0                 4           1             5   10     1      -0.2610661115E-04       5   10    1        -0.1153558542E-02      0.3390711806E-02

    ------------------------------------------------
       NWT REQUIRED            4 OUTER ITERATIONS 
       AND A TOTAL OF          7 INNER ITERATIONS.
    ------------------------------------------------

 NO OUTPUT CONTROL FOR STRESS PERIOD   12   TIME STEP    4
 
 SOLVING FOR HEAD 
                                                   Max.-Head-Change                         Max.-Flux-Residual
  Residual-Control   Outer-Iter.   Inner-Iter.     Column Row Layer    Maximum-Head-Change  Column Row Layer    Maximum-Flux-Residual          L2-NORM 
          0                 1           2             5   10     1       0.3930337843E-01       5   10    1         0.1539980681E+01      0.4604936296E+01
          0                 2           2             5   10     1      -0.3894605106E-02       5   10    1        -0.1539979350E+00      0.4604932475E+00
          0                 3           2             5   10     1       0.3473309582E-03       5   10    1         0.1385981718E-01      0.4144440117E-01
          0                 4           1             5   10     1      -0.2756876276E-04       5   10    1        -0.1110171626E-02      0.3319697340E-02

    ------------------------------------------------
       NWT REQUIRED            4 OUTER ITERATIONS 
       AND A TOTAL OF          7 INNER ITERATIONS.
    ------------------------------------------------

 OUTPUT CONTROL FOR STRESS PERIOD   12   TIME STEP    5
    PRINT BUDGET
    SAVE BUDGET

  HEAD DEP BOUNDS   PERIOD   12   STEP   5
 BOUNDARY      1   LAYER   1   ROW    13   COL     1   RATE    0.763533    
 BOUNDARY      2   LAYER   1   ROW    14   COL     9   RATE     2.37313    



 STREAM LISTING     PERIOD     12   STEP        5

 LAYER ROW COL. STREAM  RCH.  FLOW INTO     FLOW TO   FLOW OUT OF   OVRLND.     DIRECT     STREAM       STREAM     STREAM     STREAM   STREAMBED  STREAMBED
                SEG.NO.  NO.  STRM. RCH.    AQUIFER    STRM. RCH.    RUNOFF     PRECIP       ET          HEAD       DEPTH      WIDTH   CONDCTNC.   GRADIENT

   1    1    1     1     1    2.5000E+01  2.4515E-09   2.5000E+01  0.000E+00  0.000E+00  0.000E+00  1.09423E+03  1.178E+00  1.304E+01  5.867E-10  1.393E+00
   1    2    2     1     2    2.5000E+01  3.8085E-09   2.5000E+01  0.000E+00  0.000E+00  0.000E+00  1.08924E+03  1.177E+00  1.302E+01  9.117E-10  1.392E+00
   1    3    3     1     3    2.5000E+01  3.2661E-09   2.5000E+01  0.000E+00  0.000E+00  0.000E+00  1.08360E+03  1.178E+00  1.303E+01  7.818E-10  1.393E+00
   1    3    4     1     4    2.5000E+01  3.0219E-09   2.5000E+01  0.000E+00  0.000E+00  0.000E+00  1.07859E+03  1.178E+00  1.303E+01  7.233E-10  1.393E+00
   1    4    5     2     1    1.5000E+01  3.0290E-01   1.4697E+01  0.000E+00  0.000E+00  0.000E+00  1.07282E+03  8.834E-01  1.200E+01  7.800E-02  1.294E+00
   1    5    6     2     2    1.4697E+01  2.3243E-01   1.4465E+01  0.000E+00  0.000E+00  0.000E+00  1.06738E+03  8.738E-01  1.200E+01  6.000E-02  1.291E+00
   1    6    6     2     3    1.4465E+01  2.3193E-01   1.4233E+01  0.000E+00  0.000E+00  0.000E+00  1.06266E+03  8.654E-01  1.200E+01  6.000E-02  1.288E+00
   1    7    6     2     4    1.4233E+01  2.3142E-01   1.4001E+01  0.000E+00  0.000E+00  0.000E+00  1.05793E+03  8.570E-01  1.200E+01  6.000E-02  1.286E+00
   1    8    6     2     5    1.4001E+01  2.3091E-01   1.3770E+01  0.000E+00  0.000E+00  0.000E+00  1.05321E+03  8.486E-01  1.200E+01  6.000E-02  1.283E+00
   1    3    5     3     1    1.0000E+01  2.8252E-01   9.7175E+00  0.000E+00  0.000E+00  0.000E+00  1.07555E+03  1.909E+00  9.636E+00  7.227E-02  1.955E+00
   1    3    6     3     2    9.7175E+00  2.4905E-01   9.4684E+00  0.000E+00  0.000E+00  0.000E+00  1.07264E+03  1.727E+00  8.909E+00  6.682E-02  1.864E+00
   1    3    7     3     3    9.4684E+00  1.9718E-01   9.2712E+00  0.000E+00  0.000E+00  0.000E+00  1.06987E+03  1.555E+00  8.218E+00  5.547E-02  1.777E+00
   1    4    8     3     4    9.2712E+00  2.2567E-01   9.0456E+00  0.000E+00  0.000E+00  0.000E+00  1.06682E+03  1.364E+00  7.455E+00  6.709E-02  1.682E+00
   1    5    8     3     5    9.0456E+00  1.5790E-01   8.8877E+00  0.000E+00  0.000E+00  0.000E+00  1.06362E+03  1.164E+00  6.655E+00  4.991E-02  1.582E+00
   1    6    8     3     6    8.8877E+00  5.5980E-02   8.8317E+00  0.000E+00  0.000E+00  0.000E+00  1.06158E+03  1.036E+00  6.145E+00  1.844E-02  1.518E+00
   1    5   10     4     1    1.0000E+01  9.0919E-02   9.9091E+00  0.000E+00  0.000E+00  0.000E+00  1.07836E+03  6.368E-01  1.000E+01  2.500E-02  1.212E+00
   1    5    9     4     2    9.9091E+00  1.8158E-01   9.7275E+00  0.000E+00  0.000E+00  0.000E+00  1.07154E+03  6.315E-01  1.000E+01  5.000E-02  1.211E+00
   1    6    8     4     3    9.7275E+00  1.2689E-01   9.6006E+00  0.000E+00  0.000E+00  0.000E+00  1.06381E+03  6.256E-01  1.000E+01  3.500E-02  1.209E+00
   1    6    8     5     1    1.8432E+01  3.3262E-09   1.8432E+01  0.000E+00  0.000E+00  0.000E+00  1.05883E+03  8.293E-01  2.172E+01  8.686E-10  1.276E+00
   1    7    7     5     2    1.8432E+01  4.1514E-09   1.8432E+01  0.000E+00  0.000E+00  0.000E+00  1.05433E+03  8.286E-01  2.169E+01  1.084E-09  1.276E+00
   1    8    7     5     3    1.8432E+01  2.9126E-09   1.8432E+01  0.000E+00  0.000E+00  0.000E+00  1.05008E+03  8.296E-01  2.173E+01  7.606E-10  1.277E+00
   1    8    6     5     4    1.8432E+01  2.0836E-09   1.8432E+01  0.000E+00  0.000E+00  0.000E+00  1.04708E+03  8.303E-01  2.176E+01  5.440E-10  1.277E+00
   1    9    6     6     1    3.2203E+01  2.6507E-01   3.1938E+01  0.000E+00  0.000E+00  0.000E+00  1.04415E+03  1.418E+00  1.200E+01  6.000E-02  1.473E+00
   1   10    7     6     2    3.1938E+01  2.6465E-01   3.1673E+01  0.000E+00  0.000E+00  0.000E+00  1.03959E+03  1.411E+00  1.200E+01  6.000E-02  1.470E+00
   1   11    7     6     3    3.1673E+01  2.6423E-01   3.1409E+01  0.000E+00  0.000E+00  0.000E+00  1.03504E+03  1.404E+00  1.200E+01  6.000E-02  1.468E+00
   1   12    7     6     4    3.1409E+01  2.6380E-01   3.1145E+01  0.000E+00  0.000E+00  0.000E+00  1.03049E+03  1.397E+00  1.200E+01  6.000E-02  1.466E+00
   1   13    7     6     5    3.1145E+01  1.0540E-01   3.1040E+01  0.000E+00  0.000E+00  0.000E+00  1.02730E+03  1.392E+00  1.200E+01  2.400E-02  1.464E+00
   1   14    9     7     1    1.5000E+02  2.9539E-14   1.5000E+02  0.000E+00  0.000E+00  0.000E+00  1.03986E+03  2.283E+00  5.528E+01  5.591E-15  1.761E+00
   1   13    8     7     2    1.5000E+02  3.2486E-13   1.5000E+02  0.000E+00  0.000E+00  0.000E+00  1.03478E+03  2.283E+00  5.527E+01  6.150E-14  1.761E+00
   1   13    7     7     3    1.5000E+02  2.9539E-14   1.5000E+02  0.000E+00  0.000E+00  0.000E+00  1.02970E+03  2.283E+00  5.528E+01  5.591E-15  1.761E+00
   1   13    6     8     1    1.8104E+02  0.0000E+00   1.8104E+02  0.000E+00  0.000E+00  0.000E+00  1.02490E+03  3.023E+00  4.383E+01  0.000E+00  2.008E+00
   1   13    5     8     2    1.8104E+02  2.6787E-12   1.8104E+02  0.000E+00  0.000E+00  0.000E+00  1.01864E+03  3.014E+00  4.371E+01  4.454E-13  2.005E+00
   1   13    4     8     3    1.8104E+02  2.6787E-12   1.8104E+02  0.000E+00  0.000E+00  0.000E+00  1.01239E+03  3.014E+00  4.371E+01  4.454E-13  2.005E+00
   1   13    3     8     4    1.8104E+02  2.6787E-12   1.8104E+02  0.000E+00  0.000E+00  0.000E+00  1.00614E+03  3.014E+00  4.371E+01  4.454E-13  2.005E+00
   1   13    2     8     5    1.8104E+02  2.6787E-12   1.8104E+02  0.000E+00  0.000E+00  0.000E+00  9.99889E+02  3.014E+00  4.371E+01  4.454E-13  2.005E+00
   1   13    1     8     6    1.8104E+02  1.6099E-08   1.8104E+02  0.000E+00  0.000E+00  0.000E+00  9.94893E+02  3.018E+00  4.376E+01  2.675E-09  2.006E+00



 UBDSV3 SAVING "     NETRECHARGE" ON UNIT 100 AT TIME STEP  5, STRESS PERIOD  12
 UBDSV3 SAVING "    NETDISCHARGE" ON UNIT 101 AT TIME STEP  5, STRESS PERIOD  12
 UBDSV3 SAVING "           GW ET" ON UNIT  61 AT TIME STEP  5, STRESS PERIOD  12
 UBDSV3 SAVING "    UZF RECHARGE" ON UNIT  61 AT TIME STEP  5, STRESS PERIOD  12
 UBDSV3 SAVING " SURFACE LEAKAGE" ON UNIT  61 AT TIME STEP  5, STRESS PERIOD  12
 UBDSV3 SAVING "       HORT+DUNN" ON UNIT  61 AT TIME STEP  5, STRESS PERIOD  12
 UBDSV3 SAVING "  STORAGE CHANGE" ON UNIT  61 AT TIME STEP  5, STRESS PERIOD  12


UNSATURATED ZONE PACKAGE VOLUMETRIC BUDGET FOR  TIME STEP     5 STRESS PERIOD   12
  ------------------------------------------------------------------------------



     CUMULATIVE VOLUMES      L**3       RATES FOR THIS TIME STEP      L**3/T
     ------------------                 ------------------------

           IN:                                      IN:
           ---                                      ---
        INFILTRATION =    85297609.3467          INFILTRATION =           2.9000

          OUT:                                     OUT:
          ----                                     ----
              UZF ET =    26893225.3560                UZF ET =           1.1723
        UZF RECHARGE =     7621246.6355          UZF RECHARGE =       0.0000E+00

            IN - OUT =    50783137.3552              IN - OUT =           1.7277

          STORAGE:                                 STORAGE:
          --------                                 --------
      STORAGE CHANGE =    50783137.1385        STORAGE CHANGE =           1.7277

 PERCENT DISCREPANCY IS DIFFERENCE BETWEEN IN-OUT MINUS CHANGE IN STORAGE
 DIVIDED BY THE AVERAGE OF IN AND OUT TIMES 100

 PERCENT DISCREPANCY =           0.00     PERCENT DISCREPANCY =           0.00






1
  VOLUMETRIC BUDGET FOR ENTIRE MODEL AT END OF TIME STEP    5, STRESS PERIOD  12
  ------------------------------------------------------------------------------

     CUMULATIVE VOLUMES      L**3       RATES FOR THIS TIME STEP      L**3/T
     ------------------                 ------------------------

           IN:                                      IN:
           ---                                      ---
             STORAGE =   501653344.0000               STORAGE =           6.9092
       CONSTANT HEAD =           0.0000         CONSTANT HEAD =           0.0000
               WELLS =           0.0000                 WELLS =           0.0000
     HEAD DEP BOUNDS =    92075296.0000       HEAD DEP BOUNDS =           3.1367
      STREAM LEAKAGE =   116647616.0000        STREAM LEAKAGE =           3.9604
        UZF RECHARGE =     7621252.0000          UZF RECHARGE =           0.0000
               GW ET =           0.0000                 GW ET =           0.0000
     SURFACE LEAKAGE =           0.0000       SURFACE LEAKAGE =           0.0000

            TOTAL IN =   717997440.0000              TOTAL IN =          14.0063

          OUT:                                     OUT:
          ----                                     ----
             STORAGE =   139852064.0000               STORAGE =          14.0059
       CONSTANT HEAD =           0.0000         CONSTANT HEAD =           0.0000
               WELLS =   578160000.0000                 WELLS =           0.0000
     HEAD DEP BOUNDS =           0.0000       HEAD DEP BOUNDS =           0.0000
      STREAM LEAKAGE =           0.0000        STREAM LEAKAGE =           0.0000
        UZF RECHARGE =           0.0000          UZF RECHARGE =           0.0000
               GW ET =           0.0000                 GW ET =           0.0000
     SURFACE LEAKAGE =           0.0000       SURFACE LEAKAGE =           0.0000

           TOTAL OUT =   718012032.0000             TOTAL OUT =          14.0059

            IN - OUT =      -14592.0000              IN - OUT =       3.6430E-04

 PERCENT DISCREPANCY =          -0.00     PERCENT DISCREPANCY =           0.00






         TIME SUMMARY AT END OF TIME STEP    5 IN STRESS PERIOD   12
                    SECONDS     MINUTES      HOURS       DAYS        YEARS
                    -----------------------------------------------------------
   TIME STEP LENGTH 1.21100E+05  2018.3      33.639      1.4016     3.83743E-03
 STRESS PERIOD TIME 5.04972E+05  8416.2      140.27      5.8446     1.60016E-02
         TOTAL TIME 2.94130E+07 4.90216E+05  8170.3      340.43     0.93204    
1
 
 SOLVING FOR HEAD 
                                                   Max.-Head-Change                         Max.-Flux-Residual
  Residual-Control   Outer-Iter.   Inner-Iter.     Column Row Layer    Maximum-Head-Change  Column Row Layer    Maximum-Flux-Residual          L2-NORM 
          0                 1           2             5   10     1       0.4140107681E-01       5   10    1         0.1478386336E+01      0.4503420114E+01
          0                 2           2             5   10     1      -0.4102466966E-02       5   10    1        -0.1478384642E+00      0.4503417635E+00
          0                 3           2             5   10     1       0.3658686243E-03       5   10    1         0.1330546509E-01      0.4053076617E-01
          0                 4           1             5   10     1      -0.2904015563E-04       5   10    1        -0.1065767988E-02      0.3246515175E-02

    ------------------------------------------------
       NWT REQUIRED            4 OUTER ITERATIONS 
       AND A TOTAL OF          7 INNER ITERATIONS.
    ------------------------------------------------

 NO OUTPUT CONTROL FOR STRESS PERIOD   12   TIME STEP    6
 
 SOLVING FOR HEAD 
                                                   Max.-Head-Change                         Max.-Flux-Residual
  Residual-Control   Outer-Iter.   Inner-Iter.     Column Row Layer    Maximum-Head-Change  Column Row Layer    Maximum-Flux-Residual          L2-NORM 
          0                 1           2             4   10     1       0.4361150633E-01       5   10    1         0.1415722901E+01      0.4399263019E+01
          0                 2           2             4   10     1      -0.4321504383E-02       5   10    1        -0.1415720834E+00      0.4399262509E+00
          0                 3           2             4   10     1       0.3854029078E-03       5   10    1         0.1274149112E-01      0.3959336800E-01
          0                 4           1             4   10     1      -0.3059065404E-04       5   10    1        -0.1020593686E-02      0.3171429594E-02

    ------------------------------------------------
       NWT REQUIRED            4 OUTER ITERATIONS 
       AND A TOTAL OF          7 INNER ITERATIONS.
    ------------------------------------------------

 NO OUTPUT CONTROL FOR STRESS PERIOD   12   TIME STEP    7
 
 SOLVING FOR HEAD 
                                                   Max.-Head-Change                         Max.-Flux-Residual
  Residual-Control   Outer-Iter.   Inner-Iter.     Column Row Layer    Maximum-Head-Change  Column Row Layer    Maximum-Flux-Residual          L2-NORM 
          0                 1           2             5    9     1       0.4672737833E-01       5    9    1         0.1355424426E+01      0.4292855061E+01
          0                 2           2             5    9     1      -0.4630265414E-02       5    9    1        -0.1355427001E+00      0.4292857254E+00
          0                 3           2             5    9     1       0.4129389495E-03       5    9    1         0.1219884199E-01      0.3863571794E-01
          0                 4           1             5    9     1      -0.3277627852E-04       5    9    1        -0.9771275154E-03      0.3094721809E-02

    ------------------------------------------------
       NWT REQUIRED            4 OUTER ITERATIONS 
       AND A TOTAL OF          7 INNER ITERATIONS.
    ------------------------------------------------

 NO OUTPUT CONTROL FOR STRESS PERIOD   12   TIME STEP    8
 
 SOLVING FOR HEAD 
                                                   Max.-Head-Change                         Max.-Flux-Residual
  Residual-Control   Outer-Iter.   Inner-Iter.     Column Row Layer    Maximum-Head-Change  Column Row Layer    Maximum-Flux-Residual          L2-NORM 
          0                 1           2             4    9     1       0.5062397861E-01       5    9    1         0.1320466496E+01      0.4184609910E+01
          0                 2           2             4    9     1      -0.5016392535E-02       5    9    1        -0.1320470285E+00      0.4184615639E+00
          0                 3           2             4    9     1       0.4473746689E-03       5    9    1         0.1188423031E-01      0.3766153981E-01
          0                 4           1             4    9     1      -0.3550955168E-04       5    9    1        -0.9519271248E-03      0.3016690149E-02

    ------------------------------------------------
       NWT REQUIRED            4 OUTER ITERATIONS 
       AND A TOTAL OF          7 INNER ITERATIONS.
    ------------------------------------------------

 NO OUTPUT CONTROL FOR STRESS PERIOD   12   TIME STEP    9
 
 SOLVING FOR HEAD 
                                                   Max.-Head-Change                         Max.-Flux-Residual
  Residual-Control   Outer-Iter.   Inner-Iter.     Column Row Layer    Maximum-Head-Change  Column Row Layer    Maximum-Flux-Residual          L2-NORM 
          0                 1           2             4    9     1       0.5520143247E-01       4    9    1         0.1299807762E+01      0.4074951958E+01
          0                 2           2             4    9     1      -0.5469989261E-02       4    9    1        -0.1299816522E+00      0.4074962144E+00
          0                 3           2             4    9     1       0.4878274698E-03       4    9    1         0.1169834155E-01      0.3667465385E-01
          0                 4           1             4    9     1      -0.3872041992E-04       4    9    1        -0.9370374610E-03      0.2937640600E-02

    ------------------------------------------------
       NWT REQUIRED            4 OUTER ITERATIONS 
       AND A TOTAL OF          7 INNER ITERATIONS.
    ------------------------------------------------

 OUTPUT CONTROL FOR STRESS PERIOD   12   TIME STEP   10
    PRINT BUDGET
    SAVE BUDGET

  HEAD DEP BOUNDS   PERIOD   12   STEP  10
 BOUNDARY      1   LAYER   1   ROW    13   COL     1   RATE    0.763760    
 BOUNDARY      2   LAYER   1   ROW    14   COL     9   RATE     2.37331    



 STREAM LISTING     PERIOD     12   STEP       10

 LAYER ROW COL. STREAM  RCH.  FLOW INTO     FLOW TO   FLOW OUT OF   OVRLND.     DIRECT     STREAM       STREAM     STREAM     STREAM   STREAMBED  STREAMBED
                SEG.NO.  NO.  STRM. RCH.    AQUIFER    STRM. RCH.    RUNOFF     PRECIP       ET          HEAD       DEPTH      WIDTH   CONDCTNC.   GRADIENT

   1    1    1     1     1    2.5000E+01  2.4515E-09   2.5000E+01  0.000E+00  0.000E+00  0.000E+00  1.09423E+03  1.178E+00  1.304E+01  5.867E-10  1.393E+00
   1    2    2     1     2    2.5000E+01  3.8085E-09   2.5000E+01  0.000E+00  0.000E+00  0.000E+00  1.08924E+03  1.177E+00  1.302E+01  9.117E-10  1.392E+00
   1    3    3     1     3    2.5000E+01  3.2661E-09   2.5000E+01  0.000E+00  0.000E+00  0.000E+00  1.08360E+03  1.178E+00  1.303E+01  7.818E-10  1.393E+00
   1    3    4     1     4    2.5000E+01  3.0219E-09   2.5000E+01  0.000E+00  0.000E+00  0.000E+00  1.07859E+03  1.178E+00  1.303E+01  7.233E-10  1.393E+00
   1    4    5     2     1    1.5000E+01  3.0290E-01   1.4697E+01  0.000E+00  0.000E+00  0.000E+00  1.07282E+03  8.834E-01  1.200E+01  7.800E-02  1.294E+00
   1    5    6     2     2    1.4697E+01  2.3243E-01   1.4465E+01  0.000E+00  0.000E+00  0.000E+00  1.06738E+03  8.738E-01  1.200E+01  6.000E-02  1.291E+00
   1    6    6     2     3    1.4465E+01  2.3193E-01   1.4233E+01  0.000E+00  0.000E+00  0.000E+00  1.06266E+03  8.654E-01  1.200E+01  6.000E-02  1.288E+00
   1    7    6     2     4    1.4233E+01  2.3142E-01   1.4001E+01  0.000E+00  0.000E+00  0.000E+00  1.05793E+03  8.570E-01  1.200E+01  6.000E-02  1.286E+00
   1    8    6     2     5    1.4001E+01  2.3091E-01   1.3770E+01  0.000E+00  0.000E+00  0.000E+00  1.05321E+03  8.486E-01  1.200E+01  6.000E-02  1.283E+00
   1    3    5     3     1    1.0000E+01  2.8252E-01   9.7175E+00  0.000E+00  0.000E+00  0.000E+00  1.07555E+03  1.909E+00  9.636E+00  7.227E-02  1.955E+00
   1    3    6     3     2    9.7175E+00  2.4905E-01   9.4684E+00  0.000E+00  0.000E+00  0.000E+00  1.07264E+03  1.727E+00  8.909E+00  6.682E-02  1.864E+00
   1    3    7     3     3    9.4684E+00  1.9718E-01   9.2712E+00  0.000E+00  0.000E+00  0.000E+00  1.06987E+03  1.555E+00  8.218E+00  5.547E-02  1.777E+00
   1    4    8     3     4    9.2712E+00  2.2567E-01   9.0456E+00  0.000E+00  0.000E+00  0.000E+00  1.06682E+03  1.364E+00  7.455E+00  6.709E-02  1.682E+00
   1    5    8     3     5    9.0456E+00  1.5790E-01   8.8877E+00  0.000E+00  0.000E+00  0.000E+00  1.06362E+03  1.164E+00  6.655E+00  4.991E-02  1.582E+00
   1    6    8     3     6    8.8877E+00  5.5980E-02   8.8317E+00  0.000E+00  0.000E+00  0.000E+00  1.06158E+03  1.036E+00  6.145E+00  1.844E-02  1.518E+00
   1    5   10     4     1    1.0000E+01  9.0919E-02   9.9091E+00  0.000E+00  0.000E+00  0.000E+00  1.07836E+03  6.368E-01  1.000E+01  2.500E-02  1.212E+00
   1    5    9     4     2    9.9091E+00  1.8158E-01   9.7275E+00  0.000E+00  0.000E+00  0.000E+00  1.07154E+03  6.315E-01  1.000E+01  5.000E-02  1.211E+00
   1    6    8     4     3    9.7275E+00  1.2689E-01   9.6006E+00  0.000E+00  0.000E+00  0.000E+00  1.06381E+03  6.256E-01  1.000E+01  3.500E-02  1.209E+00
   1    6    8     5     1    1.8432E+01  3.3262E-09   1.8432E+01  0.000E+00  0.000E+00  0.000E+00  1.05883E+03  8.293E-01  2.172E+01  8.686E-10  1.276E+00
   1    7    7     5     2    1.8432E+01  4.1514E-09   1.8432E+01  0.000E+00  0.000E+00  0.000E+00  1.05433E+03  8.286E-01  2.169E+01  1.084E-09  1.276E+00
   1    8    7     5     3    1.8432E+01  2.9126E-09   1.8432E+01  0.000E+00  0.000E+00  0.000E+00  1.05008E+03  8.296E-01  2.173E+01  7.606E-10  1.277E+00
   1    8    6     5     4    1.8432E+01  2.0836E-09   1.8432E+01  0.000E+00  0.000E+00  0.000E+00  1.04708E+03  8.303E-01  2.176E+01  5.440E-10  1.277E+00
   1    9    6     6     1    3.2203E+01  2.6507E-01   3.1938E+01  0.000E+00  0.000E+00  0.000E+00  1.04415E+03  1.418E+00  1.200E+01  6.000E-02  1.473E+00
   1   10    7     6     2    3.1938E+01  2.6465E-01   3.1673E+01  0.000E+00  0.000E+00  0.000E+00  1.03959E+03  1.411E+00  1.200E+01  6.000E-02  1.470E+00
   1   11    7     6     3    3.1673E+01  2.6423E-01   3.1409E+01  0.000E+00  0.000E+00  0.000E+00  1.03504E+03  1.404E+00  1.200E+01  6.000E-02  1.468E+00
   1   12    7     6     4    3.1409E+01  2.6380E-01   3.1145E+01  0.000E+00  0.000E+00  0.000E+00  1.03049E+03  1.397E+00  1.200E+01  6.000E-02  1.466E+00
   1   13    7     6     5    3.1145E+01  1.0540E-01   3.1040E+01  0.000E+00  0.000E+00  0.000E+00  1.02730E+03  1.392E+00  1.200E+01  2.400E-02  1.464E+00
   1   14    9     7     1    1.5000E+02  2.9539E-14   1.5000E+02  0.000E+00  0.000E+00  0.000E+00  1.03986E+03  2.283E+00  5.528E+01  5.591E-15  1.761E+00
   1   13    8     7     2    1.5000E+02  3.2486E-13   1.5000E+02  0.000E+00  0.000E+00  0.000E+00  1.03478E+03  2.283E+00  5.527E+01  6.150E-14  1.761E+00
   1   13    7     7     3    1.5000E+02  2.9539E-14   1.5000E+02  0.000E+00  0.000E+00  0.000E+00  1.02970E+03  2.283E+00  5.528E+01  5.591E-15  1.761E+00
   1   13    6     8     1    1.8104E+02  0.0000E+00   1.8104E+02  0.000E+00  0.000E+00  0.000E+00  1.02490E+03  3.023E+00  4.383E+01  0.000E+00  2.008E+00
   1   13    5     8     2    1.8104E+02  2.6787E-12   1.8104E+02  0.000E+00  0.000E+00  0.000E+00  1.01864E+03  3.014E+00  4.371E+01  4.454E-13  2.005E+00
   1   13    4     8     3    1.8104E+02  2.6787E-12   1.8104E+02  0.000E+00  0.000E+00  0.000E+00  1.01239E+03  3.014E+00  4.371E+01  4.454E-13  2.005E+00
   1   13    3     8     4    1.8104E+02  2.6787E-12   1.8104E+02  0.000E+00  0.000E+00  0.000E+00  1.00614E+03  3.014E+00  4.371E+01  4.454E-13  2.005E+00
   1   13    2     8     5    1.8104E+02  2.6787E-12   1.8104E+02  0.000E+00  0.000E+00  0.000E+00  9.99889E+02  3.014E+00  4.371E+01  4.454E-13  2.005E+00
   1   13    1     8     6    1.8104E+02  1.6099E-08   1.8104E+02  0.000E+00  0.000E+00  0.000E+00  9.94893E+02  3.018E+00  4.376E+01  2.675E-09  2.006E+00



 UBDSV3 SAVING "     NETRECHARGE" ON UNIT 100 AT TIME STEP 10, STRESS PERIOD  12
 UBDSV3 SAVING "    NETDISCHARGE" ON UNIT 101 AT TIME STEP 10, STRESS PERIOD  12
 UBDSV3 SAVING "           GW ET" ON UNIT  61 AT TIME STEP 10, STRESS PERIOD  12
 UBDSV3 SAVING "    UZF RECHARGE" ON UNIT  61 AT TIME STEP 10, STRESS PERIOD  12
 UBDSV3 SAVING " SURFACE LEAKAGE" ON UNIT  61 AT TIME STEP 10, STRESS PERIOD  12
 UBDSV3 SAVING "       HORT+DUNN" ON UNIT  61 AT TIME STEP 10, STRESS PERIOD  12
 UBDSV3 SAVING "  STORAGE CHANGE" ON UNIT  61 AT TIME STEP 10, STRESS PERIOD  12


UNSATURATED ZONE PACKAGE VOLUMETRIC BUDGET FOR  TIME STEP    10 STRESS PERIOD   12
  ------------------------------------------------------------------------------



     CUMULATIVE VOLUMES      L**3       RATES FOR THIS TIME STEP      L**3/T
     ------------------                 ------------------------

           IN:                                      IN:
           ---                                      ---
        INFILTRATION =    87656068.6143          INFILTRATION =           2.9000

          OUT:                                     OUT:
          ----                                     ----
              UZF ET =    27844829.6406                UZF ET =           1.1603
        UZF RECHARGE =     7621246.6355          UZF RECHARGE =       0.0000E+00

            IN - OUT =    52189992.3382              IN - OUT =           1.7397

          STORAGE:                                 STORAGE:
          --------                                 --------
      STORAGE CHANGE =    52189992.0740        STORAGE CHANGE =           1.7397

 PERCENT DISCREPANCY IS DIFFERENCE BETWEEN IN-OUT MINUS CHANGE IN STORAGE
 DIVIDED BY THE AVERAGE OF IN AND OUT TIMES 100

 PERCENT DISCREPANCY =           0.00     PERCENT DISCREPANCY =           0.00






1
  VOLUMETRIC BUDGET FOR ENTIRE MODEL AT END OF TIME STEP   10, STRESS PERIOD  12
  ------------------------------------------------------------------------------

     CUMULATIVE VOLUMES      L**3       RATES FOR THIS TIME STEP      L**3/T
     ------------------                 ------------------------

           IN:                                      IN:
           ---                                      ---
             STORAGE =   506451744.0000               STORAGE =           5.2981
       CONSTANT HEAD =           0.0000         CONSTANT HEAD =           0.0000
               WELLS =           0.0000                 WELLS =           0.0000
     HEAD DEP BOUNDS =    94626424.0000       HEAD DEP BOUNDS =           3.1371
      STREAM LEAKAGE =   119868480.0000        STREAM LEAKAGE =           3.9604
        UZF RECHARGE =     7621252.0000          UZF RECHARGE =           0.0000
               GW ET =           0.0000                 GW ET =           0.0000
     SURFACE LEAKAGE =           0.0000       SURFACE LEAKAGE =           0.0000

            TOTAL IN =   728567936.0000              TOTAL IN =          12.3956

          OUT:                                     OUT:
          ----                                     ----
             STORAGE =   150422144.0000               STORAGE =          12.3953
       CONSTANT HEAD =           0.0000         CONSTANT HEAD =           0.0000
               WELLS =   578160000.0000                 WELLS =           0.0000
     HEAD DEP BOUNDS =           0.0000       HEAD DEP BOUNDS =           0.0000
      STREAM LEAKAGE =           0.0000        STREAM LEAKAGE =           0.0000
        UZF RECHARGE =           0.0000          UZF RECHARGE =           0.0000
               GW ET =           0.0000                 GW ET =           0.0000
     SURFACE LEAKAGE =           0.0000       SURFACE LEAKAGE =           0.0000

           TOTAL OUT =   728582144.0000             TOTAL OUT =          12.3953

            IN - OUT =      -14208.0000              IN - OUT =       3.6430E-04

 PERCENT DISCREPANCY =          -0.00     PERCENT DISCREPANCY =           0.00






         TIME SUMMARY AT END OF TIME STEP   10 IN STRESS PERIOD   12
                    SECONDS     MINUTES      HOURS       DAYS        YEARS
                    -----------------------------------------------------------
   TIME STEP LENGTH 1.95033E+05  3250.6      54.176      2.2573     6.18023E-03
 STRESS PERIOD TIME 1.31823E+06  21971.      366.18      15.257     4.17723E-02
         TOTAL TIME 3.02262E+07 5.03770E+05  8396.2      349.84     0.95781    
1
 
 SOLVING FOR HEAD 
                                                   Max.-Head-Change                         Max.-Flux-Residual
  Residual-Control   Outer-Iter.   Inner-Iter.     Column Row Layer    Maximum-Head-Change  Column Row Layer    Maximum-Flux-Residual          L2-NORM 
          0                 1           2             4    9     1       0.6006813645E-01       4    9    1         0.1288488208E+01      0.3964292692E+01
          0                 2           2             4    9     1      -0.5952253273E-02       4    9    1        -0.1288501159E+00      0.3964308322E+00
          0                 3           2             4    9     1       0.5308368415E-03       4    9    1         0.1159649916E-01      0.3567876398E-01
          0                 4           1             4    9     1      -0.4213421257E-04       4    9    1        -0.9288799292E-03      0.2857869849E-02

    ------------------------------------------------
       NWT REQUIRED            4 OUTER ITERATIONS 
       AND A TOTAL OF          7 INNER ITERATIONS.
    ------------------------------------------------

 NO OUTPUT CONTROL FOR STRESS PERIOD   12   TIME STEP   11
 
 SOLVING FOR HEAD 
                                                   Max.-Head-Change                         Max.-Flux-Residual
  Residual-Control   Outer-Iter.   Inner-Iter.     Column Row Layer    Maximum-Head-Change  Column Row Layer    Maximum-Flux-Residual          L2-NORM 
          0                 1           2             4    9     1       0.6521263132E-01       4    9    1         0.1274623693E+01      0.3853026355E+01
          0                 2           2             4    9     1      -0.6462050498E-02       4    9    1        -0.1274641742E+00      0.3853048457E+00
          0                 3           2             4    9     1       0.5763016299E-03       4    9    1         0.1147175938E-01      0.3467741872E-01
          0                 4           1             4    9     1      -0.4574289919E-04       4    9    1        -0.9188883023E-03      0.2777662120E-02

    ------------------------------------------------
       NWT REQUIRED            4 OUTER ITERATIONS 
       AND A TOTAL OF          7 INNER ITERATIONS.
    ------------------------------------------------

 NO OUTPUT CONTROL FOR STRESS PERIOD   12   TIME STEP   12
 
 SOLVING FOR HEAD 
                                                   Max.-Head-Change                         Max.-Flux-Residual
  Residual-Control   Outer-Iter.   Inner-Iter.     Column Row Layer    Maximum-Head-Change  Column Row Layer    Maximum-Flux-Residual          L2-NORM 
          0                 1           2             4    8     1       0.7088686752E-01       4    9    1         0.1257987971E+01      0.3741501230E+01
          0                 2           2             4    8     1      -0.7024315769E-02       4    9    1        -0.1258012076E+00      0.3741530840E+00
          0                 3           2             4    8     1       0.6264458978E-03       4    9    1         0.1132208641E-01      0.3367375267E-01
          0                 4           1             4    8     1      -0.4972300874E-04       4    9    1        -0.9068995350E-03      0.2697268510E-02

    ------------------------------------------------
       NWT REQUIRED            4 OUTER ITERATIONS 
       AND A TOTAL OF          7 INNER ITERATIONS.
    ------------------------------------------------

 NO OUTPUT CONTROL FOR STRESS PERIOD   12   TIME STEP   13
 
 SOLVING FOR HEAD 
                                                   Max.-Head-Change                         Max.-Flux-Residual
  Residual-Control   Outer-Iter.   Inner-Iter.     Column Row Layer    Maximum-Head-Change  Column Row Layer    Maximum-Flux-Residual          L2-NORM 
          0                 1           2             4    8     1       0.7690410858E-01       4    8    1         0.1243128827E+01      0.3630020703E+01
          0                 2           2             4    8     1      -0.7620604554E-02       4    8    1        -0.1243150057E+00      0.3630058829E+00
          0                 3           2             4    8     1       0.6796241232E-03       4    8    1         0.1118833106E-01      0.3267049608E-01
          0                 4           1             4    8     1      -0.5394393606E-04       4    8    1        -0.8961857088E-03      0.2616907704E-02

    ------------------------------------------------
       NWT REQUIRED            4 OUTER ITERATIONS 
       AND A TOTAL OF          7 INNER ITERATIONS.
    ------------------------------------------------

 NO OUTPUT CONTROL FOR STRESS PERIOD   12   TIME STEP   14
 
 SOLVING FOR HEAD 
                                                   Max.-Head-Change                         Max.-Flux-Residual
  Residual-Control   Outer-Iter.   Inner-Iter.     Column Row Layer    Maximum-Head-Change  Column Row Layer    Maximum-Flux-Residual          L2-NORM 
          0                 1           2             4    8     1       0.8323484888E-01       4    8    1         0.1226049528E+01      0.3518826362E+01
          0                 2           2             4    8     1      -0.8247971579E-02       4    8    1        -0.1226077798E+00      0.3518873947E+00
          0                 3           2             4    8     1       0.7355738552E-03       4    8    1         0.1103467379E-01      0.3166982273E-01
          0                 4           1             4    8     1      -0.5838484779E-04       4    8    1        -0.8838778222E-03      0.2536753821E-02

    ------------------------------------------------
       NWT REQUIRED            4 OUTER ITERATIONS 
       AND A TOTAL OF          7 INNER ITERATIONS.
    ------------------------------------------------

 OUTPUT CONTROL FOR STRESS PERIOD   12   TIME STEP   15
    PRINT BUDGET
    PRINT HEAD FOR ALL LAYERS
    SAVE HEAD FOR ALL LAYERS
    SAVE BUDGET

  HEAD DEP BOUNDS   PERIOD   12   STEP  15
 BOUNDARY      1   LAYER   1   ROW    13   COL     1   RATE    0.764133    
 BOUNDARY      2   LAYER   1   ROW    14   COL     9   RATE     2.37361    



 STREAM LISTING     PERIOD     12   STEP       15

 LAYER ROW COL. STREAM  RCH.  FLOW INTO     FLOW TO   FLOW OUT OF   OVRLND.     DIRECT     STREAM       STREAM     STREAM     STREAM   STREAMBED  STREAMBED
                SEG.NO.  NO.  STRM. RCH.    AQUIFER    STRM. RCH.    RUNOFF     PRECIP       ET          HEAD       DEPTH      WIDTH   CONDCTNC.   GRADIENT

   1    1    1     1     1    2.5000E+01  2.4515E-09   2.5000E+01  0.000E+00  0.000E+00  0.000E+00  1.09423E+03  1.178E+00  1.304E+01  5.867E-10  1.393E+00
   1    2    2     1     2    2.5000E+01  3.8085E-09   2.5000E+01  0.000E+00  0.000E+00  0.000E+00  1.08924E+03  1.177E+00  1.302E+01  9.117E-10  1.392E+00
   1    3    3     1     3    2.5000E+01  3.2661E-09   2.5000E+01  0.000E+00  0.000E+00  0.000E+00  1.08360E+03  1.178E+00  1.303E+01  7.818E-10  1.393E+00
   1    3    4     1     4    2.5000E+01  3.0219E-09   2.5000E+01  0.000E+00  0.000E+00  0.000E+00  1.07859E+03  1.178E+00  1.303E+01  7.233E-10  1.393E+00
   1    4    5     2     1    1.5000E+01  3.0290E-01   1.4697E+01  0.000E+00  0.000E+00  0.000E+00  1.07282E+03  8.834E-01  1.200E+01  7.800E-02  1.294E+00
   1    5    6     2     2    1.4697E+01  2.3243E-01   1.4465E+01  0.000E+00  0.000E+00  0.000E+00  1.06738E+03  8.738E-01  1.200E+01  6.000E-02  1.291E+00
   1    6    6     2     3    1.4465E+01  2.3193E-01   1.4233E+01  0.000E+00  0.000E+00  0.000E+00  1.06266E+03  8.654E-01  1.200E+01  6.000E-02  1.288E+00
   1    7    6     2     4    1.4233E+01  2.3142E-01   1.4001E+01  0.000E+00  0.000E+00  0.000E+00  1.05793E+03  8.570E-01  1.200E+01  6.000E-02  1.286E+00
   1    8    6     2     5    1.4001E+01  2.3091E-01   1.3770E+01  0.000E+00  0.000E+00  0.000E+00  1.05321E+03  8.486E-01  1.200E+01  6.000E-02  1.283E+00
   1    3    5     3     1    1.0000E+01  2.8252E-01   9.7175E+00  0.000E+00  0.000E+00  0.000E+00  1.07555E+03  1.909E+00  9.636E+00  7.227E-02  1.955E+00
   1    3    6     3     2    9.7175E+00  2.4905E-01   9.4684E+00  0.000E+00  0.000E+00  0.000E+00  1.07264E+03  1.727E+00  8.909E+00  6.682E-02  1.864E+00
   1    3    7     3     3    9.4684E+00  1.9718E-01   9.2712E+00  0.000E+00  0.000E+00  0.000E+00  1.06987E+03  1.555E+00  8.218E+00  5.547E-02  1.777E+00
   1    4    8     3     4    9.2712E+00  2.2567E-01   9.0456E+00  0.000E+00  0.000E+00  0.000E+00  1.06682E+03  1.364E+00  7.455E+00  6.709E-02  1.682E+00
   1    5    8     3     5    9.0456E+00  1.5790E-01   8.8877E+00  0.000E+00  0.000E+00  0.000E+00  1.06362E+03  1.164E+00  6.655E+00  4.991E-02  1.582E+00
   1    6    8     3     6    8.8877E+00  5.5980E-02   8.8317E+00  0.000E+00  0.000E+00  0.000E+00  1.06158E+03  1.036E+00  6.145E+00  1.844E-02  1.518E+00
   1    5   10     4     1    1.0000E+01  9.0919E-02   9.9091E+00  0.000E+00  0.000E+00  0.000E+00  1.07836E+03  6.368E-01  1.000E+01  2.500E-02  1.212E+00
   1    5    9     4     2    9.9091E+00  1.8158E-01   9.7275E+00  0.000E+00  0.000E+00  0.000E+00  1.07154E+03  6.315E-01  1.000E+01  5.000E-02  1.211E+00
   1    6    8     4     3    9.7275E+00  1.2689E-01   9.6006E+00  0.000E+00  0.000E+00  0.000E+00  1.06381E+03  6.256E-01  1.000E+01  3.500E-02  1.209E+00
   1    6    8     5     1    1.8432E+01  3.3262E-09   1.8432E+01  0.000E+00  0.000E+00  0.000E+00  1.05883E+03  8.293E-01  2.172E+01  8.686E-10  1.276E+00
   1    7    7     5     2    1.8432E+01  4.1514E-09   1.8432E+01  0.000E+00  0.000E+00  0.000E+00  1.05433E+03  8.286E-01  2.169E+01  1.084E-09  1.276E+00
   1    8    7     5     3    1.8432E+01  2.9126E-09   1.8432E+01  0.000E+00  0.000E+00  0.000E+00  1.05008E+03  8.296E-01  2.173E+01  7.606E-10  1.277E+00
   1    8    6     5     4    1.8432E+01  2.0836E-09   1.8432E+01  0.000E+00  0.000E+00  0.000E+00  1.04708E+03  8.303E-01  2.176E+01  5.440E-10  1.277E+00
   1    9    6     6     1    3.2203E+01  2.6507E-01   3.1938E+01  0.000E+00  0.000E+00  0.000E+00  1.04415E+03  1.418E+00  1.200E+01  6.000E-02  1.473E+00
   1   10    7     6     2    3.1938E+01  2.6465E-01   3.1673E+01  0.000E+00  0.000E+00  0.000E+00  1.03959E+03  1.411E+00  1.200E+01  6.000E-02  1.470E+00
   1   11    7     6     3    3.1673E+01  2.6423E-01   3.1409E+01  0.000E+00  0.000E+00  0.000E+00  1.03504E+03  1.404E+00  1.200E+01  6.000E-02  1.468E+00
   1   12    7     6     4    3.1409E+01  2.6380E-01   3.1145E+01  0.000E+00  0.000E+00  0.000E+00  1.03049E+03  1.397E+00  1.200E+01  6.000E-02  1.466E+00
   1   13    7     6     5    3.1145E+01  1.0540E-01   3.1040E+01  0.000E+00  0.000E+00  0.000E+00  1.02730E+03  1.392E+00  1.200E+01  2.400E-02  1.464E+00
   1   14    9     7     1    1.5000E+02  2.9539E-14   1.5000E+02  0.000E+00  0.000E+00  0.000E+00  1.03986E+03  2.283E+00  5.528E+01  5.591E-15  1.761E+00
   1   13    8     7     2    1.5000E+02  3.2486E-13   1.5000E+02  0.000E+00  0.000E+00  0.000E+00  1.03478E+03  2.283E+00  5.527E+01  6.150E-14  1.761E+00
   1   13    7     7     3    1.5000E+02  2.9539E-14   1.5000E+02  0.000E+00  0.000E+00  0.000E+00  1.02970E+03  2.283E+00  5.528E+01  5.591E-15  1.761E+00
   1   13    6     8     1    1.8104E+02  0.0000E+00   1.8104E+02  0.000E+00  0.000E+00  0.000E+00  1.02490E+03  3.023E+00  4.383E+01  0.000E+00  2.008E+00
   1   13    5     8     2    1.8104E+02  2.6787E-12   1.8104E+02  0.000E+00  0.000E+00  0.000E+00  1.01864E+03  3.014E+00  4.371E+01  4.454E-13  2.005E+00
   1   13    4     8     3    1.8104E+02  2.6787E-12   1.8104E+02  0.000E+00  0.000E+00  0.000E+00  1.01239E+03  3.014E+00  4.371E+01  4.454E-13  2.005E+00
   1   13    3     8     4    1.8104E+02  2.6787E-12   1.8104E+02  0.000E+00  0.000E+00  0.000E+00  1.00614E+03  3.014E+00  4.371E+01  4.454E-13  2.005E+00
   1   13    2     8     5    1.8104E+02  2.6787E-12   1.8104E+02  0.000E+00  0.000E+00  0.000E+00  9.99889E+02  3.014E+00  4.371E+01  4.454E-13  2.005E+00
   1   13    1     8     6    1.8104E+02  1.6099E-08   1.8104E+02  0.000E+00  0.000E+00  0.000E+00  9.94893E+02  3.018E+00  4.376E+01  2.675E-09  2.006E+00



 UBDSV3 SAVING "     NETRECHARGE" ON UNIT 100 AT TIME STEP 15, STRESS PERIOD  12
 UBDSV3 SAVING "    NETDISCHARGE" ON UNIT 101 AT TIME STEP 15, STRESS PERIOD  12
 UBDSV3 SAVING "           GW ET" ON UNIT  61 AT TIME STEP 15, STRESS PERIOD  12
 UBDSV3 SAVING "    UZF RECHARGE" ON UNIT  61 AT TIME STEP 15, STRESS PERIOD  12
 UBDSV3 SAVING " SURFACE LEAKAGE" ON UNIT  61 AT TIME STEP 15, STRESS PERIOD  12
 UBDSV3 SAVING "       HORT+DUNN" ON UNIT  61 AT TIME STEP 15, STRESS PERIOD  12
 UBDSV3 SAVING "  STORAGE CHANGE" ON UNIT  61 AT TIME STEP 15, STRESS PERIOD  12


UNSATURATED ZONE PACKAGE VOLUMETRIC BUDGET FOR  TIME STEP    15 STRESS PERIOD   12
  ------------------------------------------------------------------------------



     CUMULATIVE VOLUMES      L**3       RATES FOR THIS TIME STEP      L**3/T
     ------------------                 ------------------------

           IN:                                      IN:
           ---                                      ---
        INFILTRATION =    91454390.9658          INFILTRATION =           2.9000

          OUT:                                     OUT:
          ----                                     ----
              UZF ET =    29376251.0620                UZF ET =           1.1749
        UZF RECHARGE =     7621246.6355          UZF RECHARGE =       0.0000E+00

            IN - OUT =    54456893.2683              IN - OUT =           1.7251

          STORAGE:                                 STORAGE:
          --------                                 --------
      STORAGE CHANGE =    54456893.0367        STORAGE CHANGE =           1.7251

 PERCENT DISCREPANCY IS DIFFERENCE BETWEEN IN-OUT MINUS CHANGE IN STORAGE
 DIVIDED BY THE AVERAGE OF IN AND OUT TIMES 100

 PERCENT DISCREPANCY =           0.00     PERCENT DISCREPANCY =           0.00






1
              HEAD IN LAYER   1 AT END OF TIME STEP  15 IN STRESS PERIOD   12
  ---------------------------------------------------------------------------

           1       2       3       4       5       6       7       8       9      10
 ...................................................................................
   1  1003.28 1000.42 6999.00 6999.00 6999.00 6999.00 6999.00 6999.00 6999.00 6999.00
   2  1000.83  958.71  958.12 6999.00 6999.00  964.28  964.76  965.14 6999.00 6999.00
   3  6999.00  957.79  957.02  956.74  957.70  959.20  960.54  961.45 6999.00 6999.00
   4   958.95  957.37  956.34  955.94  956.22  956.62  957.93  960.49  961.88 6999.00
   5   958.58  956.45  955.18  954.70  955.09  955.92  956.70  957.82  959.52  964.18
   6   958.19  955.72  953.94  953.28  953.81  955.14  956.17  957.18  958.81  972.08
   7   957.95  955.28  953.20  952.47  953.13  954.64  955.75  956.65  960.64 6999.00
   8  6999.00  955.37  953.10  952.36  953.09  954.59  955.63  957.11  962.21 6999.00
   9  6999.00  956.04  953.83  953.08  953.75  955.14  956.25  958.10  963.33 6999.00
  10  6999.00  957.35  955.35  954.56  955.03  956.21  957.39  959.39  963.59  967.20
  11  6999.00  959.30  957.62  956.68  956.97  957.85  959.11  961.38  965.74 6999.00
  12   965.83  961.40  959.39  958.52  958.64  959.49  960.93  964.46  970.73 6999.00
  13   967.89  962.67  960.49  959.67  959.77  960.83  963.18  967.72  976.50 6999.00
  14  6999.00  963.85  961.32  960.99  961.36  962.84  966.21  973.44  982.54 6999.00
  15  6999.00 6999.00  965.36  965.36  965.65  966.18 6999.00 6999.00 6999.00 6999.00

 HEAD WILL BE SAVED ON UNIT   58 AT END OF TIME STEP   15, STRESS PERIOD   12
1
  VOLUMETRIC BUDGET FOR ENTIRE MODEL AT END OF TIME STEP   15, STRESS PERIOD  12
  ------------------------------------------------------------------------------

     CUMULATIVE VOLUMES      L**3       RATES FOR THIS TIME STEP      L**3/T
     ------------------                 ------------------------

           IN:                                      IN:
           ---                                      ---
             STORAGE =   512992448.0000               STORAGE =           4.8327
       CONSTANT HEAD =           0.0000         CONSTANT HEAD =           0.0000
               WELLS =           0.0000                 WELLS =           0.0000
     HEAD DEP BOUNDS =    98735776.0000       HEAD DEP BOUNDS =           3.1377
      STREAM LEAKAGE =   125055728.0000        STREAM LEAKAGE =           3.9604
        UZF RECHARGE =     7621252.0000          UZF RECHARGE =           0.0000
               GW ET =           0.0000                 GW ET =           0.0000
     SURFACE LEAKAGE =           0.0000       SURFACE LEAKAGE =           0.0000

            TOTAL IN =   744405248.0000              TOTAL IN =          11.9309

          OUT:                                     OUT:
          ----                                     ----
             STORAGE =   166258960.0000               STORAGE =          11.9305
       CONSTANT HEAD =           0.0000         CONSTANT HEAD =           0.0000
               WELLS =   578160000.0000                 WELLS =           0.0000
     HEAD DEP BOUNDS =           0.0000       HEAD DEP BOUNDS =           0.0000
      STREAM LEAKAGE =           0.0000        STREAM LEAKAGE =           0.0000
        UZF RECHARGE =           0.0000          UZF RECHARGE =           0.0000
               GW ET =           0.0000                 GW ET =           0.0000
     SURFACE LEAKAGE =           0.0000       SURFACE LEAKAGE =           0.0000

           TOTAL OUT =   744418944.0000             TOTAL OUT =          11.9305

            IN - OUT =      -13696.0000              IN - OUT =       3.6430E-04

 PERCENT DISCREPANCY =          -0.00     PERCENT DISCREPANCY =           0.00






         TIME SUMMARY AT END OF TIME STEP   15 IN STRESS PERIOD   12
                    SECONDS     MINUTES      HOURS       DAYS        YEARS
                    -----------------------------------------------------------
   TIME STEP LENGTH 3.14103E+05  5235.0      87.251      3.6354     9.95332E-03
 STRESS PERIOD TIME 2.62800E+06  43800.      730.00      30.417     8.32763E-02
         TOTAL TIME 3.15360E+07 5.25600E+05  8760.0      365.00     0.99932    
1

 Run end date and time (yyyy/mm/dd hh:mm:ss): 2016/09/12 12:22:03
 Elapsed run time:  0.840 Seconds

