                                  MODFLOW-NWT-SWR1 
      U.S. GEOLOGICAL SURVEY MODULAR FINITE-DIFFERENCE GROUNDWATER-FLOW MODEL
                            VERSION 1.1.3, 8/01/2017
                    BASED ON MODFLOW-2005 VERSION 1.11.00 08/08/2013

 LIST FILE: .\Uzf_testoptions\UZFtestoptions.lst
                         UNIT    9

 OPENING .\Uzf_testoptions\UZFtestoptions.ba6
 FILE TYPE:BAS6   UNIT   75   STATUS:OLD    
 FORMAT:FORMATTED              ACCESS:SEQUENTIAL          

 OPENING .\Uzf_testoptions\UZFtestoptions.upw
 FILE TYPE:UPW   UNIT    7   STATUS:OLD    
 FORMAT:FORMATTED              ACCESS:SEQUENTIAL          

 OPENING .\Uzf_testoptions\UZFtestoptions.dis
 FILE TYPE:DIS   UNIT    8   STATUS:OLD    
 FORMAT:FORMATTED              ACCESS:SEQUENTIAL          

 OPENING .\Uzf_testoptions\UZFtestoptions.nwt
 FILE TYPE:NWT   UNIT   13   STATUS:OLD    
 FORMAT:FORMATTED              ACCESS:SEQUENTIAL          

 OPENING .\Uzf_testoptions\UZFtestoptions.oc
 FILE TYPE:OC   UNIT   14   STATUS:OLD    
 FORMAT:FORMATTED              ACCESS:SEQUENTIAL          

 OPENING .\Uzf_testoptions\UZFtestoptions.sfr
 FILE TYPE:SFR   UNIT   15   STATUS:OLD    
 FORMAT:FORMATTED              ACCESS:SEQUENTIAL          

 OPENING .\Uzf_testoptions\UZFtestoptions.wel
 FILE TYPE:WEL   UNIT   16   STATUS:OLD    
 FORMAT:FORMATTED              ACCESS:SEQUENTIAL          

 OPENING .\Uzf_testoptions\UZFtestoptions.ghb
 FILE TYPE:GHB   UNIT   17   STATUS:OLD    
 FORMAT:FORMATTED              ACCESS:SEQUENTIAL          

 OPENING .\Uzf_testoptions\UZFtestoptions.uzf
 FILE TYPE:UZF   UNIT   19   STATUS:OLD    
 FORMAT:FORMATTED              ACCESS:SEQUENTIAL          

 OPENING .\Uzf_testoptions\UZFtestoptions.gag
 FILE TYPE:GAGE   UNIT   32   STATUS:OLD    
 FORMAT:FORMATTED              ACCESS:SEQUENTIAL          

 OPENING .\Uzf_testoptions\UZFtestoptions.out
 FILE TYPE:DATA   UNIT   58   STATUS:UNKNOWN
 FORMAT:FORMATTED              ACCESS:SEQUENTIAL          

 OPENING .\Uzf_testoptions\UZFtestoptions.uzfot
 FILE TYPE:DATA(BINARY)   UNIT   61   STATUS:UNKNOWN
 FORMAT:BINARY                 ACCESS:SEQUENTIAL          

 OPENING .\Uzf_testoptions\netfluxin.unf
 FILE TYPE:DATA(BINARY)   UNIT  100   STATUS:UNKNOWN
 FORMAT:BINARY                 ACCESS:SEQUENTIAL          

 OPENING .\Uzf_testoptions\netfluxout.unf
 FILE TYPE:DATA(BINARY)   UNIT  101   STATUS:UNKNOWN
 FORMAT:BINARY                 ACCESS:SEQUENTIAL          

 OPENING .\Uzf_testoptions\UZFtestoptions.uzf1
 FILE TYPE:DATA   UNIT   65   STATUS:UNKNOWN
 FORMAT:FORMATTED              ACCESS:SEQUENTIAL          

 OPENING .\Uzf_testoptions\UZFtestoptions.uzf2
 FILE TYPE:DATA   UNIT   66   STATUS:UNKNOWN
 FORMAT:FORMATTED              ACCESS:SEQUENTIAL          

 OPENING .\Uzf_testoptions\UZFtestoptions.uzf3
 FILE TYPE:DATA   UNIT   67   STATUS:UNKNOWN
 FORMAT:FORMATTED              ACCESS:SEQUENTIAL          

 OPENING .\Uzf_testoptions\UZFtestoptions.uzf4
 FILE TYPE:DATA   UNIT   68   STATUS:UNKNOWN
 FORMAT:FORMATTED              ACCESS:SEQUENTIAL          

 OPENING .\Uzf_testoptions\UZFtestoptions.flw
 FILE TYPE:DATA   UNIT   81   STATUS:UNKNOWN
 FORMAT:FORMATTED              ACCESS:SEQUENTIAL          

 OPENING .\Uzf_testoptions\UZFtestoptions.sg1
 FILE TYPE:DATA   UNIT   83   STATUS:UNKNOWN
 FORMAT:FORMATTED              ACCESS:SEQUENTIAL          

 OPENING .\Uzf_testoptions\UZFtestoptions.sg2
 FILE TYPE:DATA   UNIT   84   STATUS:UNKNOWN
 FORMAT:FORMATTED              ACCESS:SEQUENTIAL          

 OPENING .\Uzf_testoptions\UZFtestoptions.sg3
 FILE TYPE:DATA   UNIT   85   STATUS:UNKNOWN
 FORMAT:FORMATTED              ACCESS:SEQUENTIAL          

 OPENING .\Uzf_testoptions\UZFtestoptions.sg4
 FILE TYPE:DATA   UNIT   86   STATUS:UNKNOWN
 FORMAT:FORMATTED              ACCESS:SEQUENTIAL          

 OPENING .\Uzf_testoptions\UZFtestoptions.sg5
 FILE TYPE:DATA   UNIT   87   STATUS:UNKNOWN
 FORMAT:FORMATTED              ACCESS:SEQUENTIAL          

 OPENING .\Uzf_testoptions\UZFtestoptions.sg6
 FILE TYPE:DATA   UNIT   88   STATUS:UNKNOWN
 FORMAT:FORMATTED              ACCESS:SEQUENTIAL          

 OPENING .\Uzf_testoptions\UZFtestoptions.sg7
 FILE TYPE:DATA   UNIT   89   STATUS:UNKNOWN
 FORMAT:FORMATTED              ACCESS:SEQUENTIAL          

 OPENING .\Uzf_testoptions\UZFtestoptions.sg8
 FILE TYPE:DATA   UNIT   90   STATUS:UNKNOWN
 FORMAT:FORMATTED              ACCESS:SEQUENTIAL          

 OPENING .\Uzf_testoptions\UZFtestoptions.sg9
 FILE TYPE:DATA   UNIT   91   STATUS:UNKNOWN
 FORMAT:FORMATTED              ACCESS:SEQUENTIAL          

 BAS -- BASIC PACKAGE, VERSION 1.1.3, 8/01/2017 INPUT READ FROM UNIT   75
 
 MODFLOW was compiled using mixed precision
 Precision of REAL variables:           6
 Precision of DOUBLE PRECISION variables:          15

 DISCRETIZATION INPUT DATA READ FROM UNIT    8
 #Test problem 2-- Discretization input
 #Example problem using the UZF1 Package
    1 LAYERS        15 ROWS        10 COLUMNS
   12 STRESS PERIOD(S) IN SIMULATION
 MODEL TIME UNIT IS SECONDS
 MODEL LENGTH UNIT IS FEET
  Confining bed flag for each layer:
   0

                     DELR =   5000.00    

                     DELC =   5000.00    



           TOP ELEVATION OF LAYER 1
 READING ON UNIT    8 WITH FORMAT: (10F7.0)            

            1           2           3           4           5           6           7           8           9          10
 ........................................................................................................................
   1    1105.       1105.       0.000       0.000       0.000       0.000       0.000       0.000       0.000       0.000    
   2    1105.       1095.       1105.       0.000       0.000       1100.       1100.       1110.       0.000       0.000    
   3    0.000       1100.       1085.       1080.       1078.       1076.       1073.       1090.       0.000       0.000    
   4    1110.       1100.       1090.       1085.       1076.       1080.       1080.       1070.       1100.       0.000    
   5    1110.       1100.       1085.       1080.       1078.       1074.       1077.       1066.       1075.       1080.    
   6    1105.       1095.       1080.       1077.       1073.       1069.       1070.       1063.       1085.       1095.    
   7    1105.       1090.       1075.       1072.       1070.       1065.       1065.       1069.       1090.       0.000    
   8    0.000       1080.       1070.       1068.       1063.       1060.       1063.       1067.       1090.       0.000    
   9    0.000       1075.       1065.       1062.       1058.       1052.       1055.       1065.       1090.       0.000    
  10    0.000       1070.       1060.       1055.       1046.       1046.       1044.       1060.       1088.       1100.    
  11    0.000       1055.       1050.       1045.       1041.       1042.       1040.       1050.       1075.       0.000    
  12    1027.       1028.       1028.       1032.       1032.       1033.       1032.       1040.       1060.       0.000    
  13    997.0       1004.       1008.       1014.       1020.       1027.       1032.       1038.       1050.       0.000    
  14    0.000       1030.       1040.       1045.       1050.       1050.       1050.       1050.       1044.       0.000    
  15    0.000       0.000       1080.       1080.       1080.       1080.       0.000       0.000       0.000       0.000    



             MODEL LAYER BOTTOM EL. FOR LAYER   1
 READING ON UNIT    8 WITH FORMAT: (10F7.0)            

            1           2           3           4           5           6           7           8           9          10
 ........................................................................................................................
   1    1000.       1000.       0.000       0.000       0.000       0.000       0.000       0.000       0.000       0.000    
   2    1000.       900.0       900.0       0.000       0.000       950.0       950.0       950.0       0.000       0.000    
   3    0.000       850.0       670.0       680.0       680.0       770.0       770.0       890.0       0.000       0.000    
   4    925.0       850.0       650.0       650.0       650.0       680.0       740.0       850.0       950.0       0.000    
   5    925.0       800.0       650.0       600.0       600.0       600.0       650.0       720.0       850.0       950.0    
   6    925.0       800.0       650.0       600.0       550.0       600.0       650.0       720.0       850.0       970.0    
   7    925.0       800.0       650.0       600.0       550.0       600.0       650.0       720.0       950.0       0.000    
   8    0.000       850.0       700.0       650.0       570.0       600.0       700.0       850.0       950.0       0.000    
   9    0.000       850.0       700.0       650.0       540.0       580.0       700.0       850.0       950.0       0.000    
  10    0.000       850.0       700.0       630.0       530.0       580.0       650.0       800.0       900.0       950.0    
  11    0.000       850.0       700.0       620.0       580.0       620.0       700.0       800.0       900.0       0.000    
  12    900.0       830.0       710.0       640.0       600.0       650.0       700.0       800.0       900.0       0.000    
  13    900.0       810.0       750.0       700.0       650.0       700.0       750.0       800.0       900.0       0.000    
  14    0.000       950.0       850.0       850.0       850.0       850.0       850.0       850.0       850.0       0.000    
  15    0.000       0.000       950.0       950.0       950.0       950.0       0.000       0.000       0.000       0.000    


 STRESS PERIOD     LENGTH       TIME STEPS     MULTIPLIER FOR DELT    SS FLAG
 ----------------------------------------------------------------------------
        1         2628000.          1                    1.000         SS
        2         2628000.         15                    1.100         TR
        3         2628000.         15                    1.100         TR
        4         2628000.         15                    1.100         TR
        5         2628000.         15                    1.100         TR
        6         2628000.         15                    1.100         TR
        7         2628000.         15                    1.100         TR
        8         2628000.         15                    1.100         TR
        9         2628000.         15                    1.100         TR
       10         2628000.         15                    1.100         TR
       11         2628000.         15                    1.100         TR
       12         2628000.         15                    1.100         TR

 COMBINED STEADY-STATE AND TRANSIENT SIMULATION



 
 #Test Simulation 2-- Example problem using the UZF1 Package                     
 #Modified from example Problem 1 of SFR1 documentation report                   
 THE FREE FORMAT OPTION HAS BEEN SELECTED



                     BOUNDARY ARRAY FOR LAYER   1
 READING ON UNIT   75 WITH FORMAT: (20I4)              

                1           2           3           4           5           6           7           8           9          10
 ............................................................................................................................
   1            1           1           0           0           0           0           0           0           0           0
   2            1           1           1           0           0           1           1           1           0           0
   3            0           1           1           1           1           1           1           1           0           0
   4            1           1           1           1           1           1           1           1           1           0
   5            1           1           1           1           1           1           1           1           1           1
   6            1           1           1           1           1           1           1           1           1           1
   7            1           1           1           1           1           1           1           1           1           0
   8            0           1           1           1           1           1           1           1           1           0
   9            0           1           1           1           1           1           1           1           1           0
  10            0           1           1           1           1           1           1           1           1           1
  11            0           1           1           1           1           1           1           1           1           0
  12            1           1           1           1           1           1           1           1           1           0
  13            1           1           1           1           1           1           1           1           1           0
  14            0           1           1           1           1           1           1           1           1           0
  15            0           0           1           1           1           1           0           0           0           0

 AQUIFER HEAD WILL BE SET TO   6999.0     AT ALL NO-FLOW NODES (IBOUND=0).



                       INITIAL HEAD FOR LAYER   1
 READING ON UNIT   75 WITH FORMAT: (10F8.0)            

            1           2           3           4           5           6           7           8           9          10
 ........................................................................................................................
   1    1093.       1089.       6999.       6999.       6999.       6999.       6999.       6999.       6999.       6999.    
   2    1090.       1087.       1081.       6999.       6999.       1072.       1071.       1071.       6999.       6999.    
   3    6999.       1079.       1078.       1074.       1072.       1071.       1069.       1068.       6999.       6999.    
   4    1069.       1071.       1070.       1067.       1065.       1064.       1064.       1066.       1066.       6999.    
   5    1065.       1064.       1063.       1062.       1061.       1061.       1060.       1062.       1066.       1068.    
   6    1060.       1058.       1057.       1056.       1056.       1057.       1057.       1059.       1062.       1066.    
   7    1056.       1053.       1052.       1051.       1051.       1052.       1053.       1055.       1056.       6999.    
   8    6999.       1046.       1046.       1046.       1046.       1046.       1048.       1050.       1050.       6999.    
   9    6999.       1039.       1039.       1039.       1040.       1041.       1042.       1043.       1044.       6999.    
  10    6999.       1031.       1032.       1033.       1034.       1035.       1037.       1038.       1039.       1042.    
  11    6999.       1021.       1023.       1027.       1029.       1030.       1032.       1034.       1036.       6999.    
  12    1001.       1009.       1015.       1020.       1023.       1026.       1029.       1030.       1034.       6999.    
  13    994.5      1000.0       1007.       1013.       1019.       1024.       1029.       1034.       1036.       6999.    
  14    6999.       1004.       1009.       1014.       1019.       1024.       1029.       1035.       1039.       6999.    
  15    6999.       6999.       1012.       1015.       1019.       1022.       6999.       6999.       6999.       6999.    

 OUTPUT CONTROL IS SPECIFIED ONLY AT TIME STEPS FOR WHICH OUTPUT IS DESIRED
 HEADS WILL BE SAVED WITH FORMAT: (10F10.3)           
 SAVED HEADS WILL BE LABELED
 HEAD PRINT FORMAT CODE IS   4    DRAWDOWN PRINT FORMAT CODE IS   0
 HEADS WILL BE SAVED ON UNIT   58    DRAWDOWNS WILL BE SAVED ON UNIT    0
 # NWT Input File
 # Test Problem 3 for MODFLOW-NWT
 #HEADTOL  FLUXTOL MAXITEROUT THICKFACT LINMETH IPRNWT IBOTAV OPTIONS DBDREDUCE DBDINCREASE DBDGAMMA MOMFACT BACKFLAG MAXBACKITER BACKTOL BACKREDUCE

 NWT1 -- Newton Solver, VERSION 1.1.3, 8/01/2017
         INPUT READ FROM UNIT 13

 SPECIFIED OPTION:
 SOLVER INPUT VALUES ARE SPECIFIED BY USER
 ***XMD linear solver will be used***
 
   CONVERGENCE CRITERION OF   0.100000E-03 FOR HEAD SOLUTION
   AND A TOLERANCE OF   0.100000E+03 FOR FLOW SOLUTION AND 
   A MAXIMUM OF   200 OUTER ITERATIONS. 


   D-B-D REDUCTION FACTOR OF    0.990000E+00 AND 
   A D-B-D INCREASE FACTOR OF    0.100000E-04 AND 
   A D-B-D RELAXATION OF    0.000000E+00 AND 
   A MOMENTUM FACTOR OF    0.100000E+00 .


 ***BACKTRACKING IS INACTIVE***
 XMD -- LINEAR SOLUTION BY XMD PACKAGE VERSION 1.30
     BY MOTOMU IBARAKI, OHIO STATE UNIVERSITY, COLOMBUS, OH
                 INPUT READ FROM UNIT 13
 ACCELERATION METHOD                    (IACL) =         2
 NODE ORDERING FLAG                   (NORDER) =         0
 LEVEL OF FILL                         (LEVEL) =         1
 MAXIMUM NUMBER OF ORTHOGONALIZATIONS  (NORTH) =        15
 INDEX FOR USING REDUCED SYSTEM      (IREDSYS) =         1
 RESID. REDUCTION CONVERGE CRITERION  (RRCTOL) =  0.000000E+00
 INDEX FOR USING DROP TOLERANCE     (IDROPTOL) =         1
 DROP TOLERANCE VALUE                  (EPSRN) =  0.500000E-02
 CONVERGENCE CRITERIA OF           (HCLOSEXMD) =  0.100000E-03
 MAX. NUMBER OF LINEAR ITERATIONS  (MXITERXMD) =        50


 UPW1 -- UPSTREAM WEIGHTING FLOW PACKAGE, VERSION 1.1.3, 8/01/2017
         INPUT READ FROM UNIT  7

 #Layer-Property Flow Package input for test simulation 2
 No named parameters

   LAYER FLAGS:
 LAYER       LAYTYP          LAYAVG    CHANI           LAYVKA           LAYWET
 ---------------------------------------------------------------------------
    1             1             0     1.000E+00             0             0

   INTERPRETATION OF LAYER FLAGS:
                        INTERBLOCK     HORIZONTAL    DATA IN
         LAYER TYPE   TRANSMISSIVITY   ANISOTROPY   ARRAY VKA   WETTABILITY
 LAYER   (LAYTYP)        (LAYAVG)      (CHANI)     (LAYVKA)       (LAYWET)
 ---------------------------------------------------------------------------
    1   CONVERTIBLE      HARMONIC     1.000E+00    VERTICAL K  NON-WETTABLE



              HYD. COND. ALONG ROWS FOR LAYER   1
 READING ON UNIT    7 WITH FORMAT: (10F5.0)            

            1           2           3           4           5           6           7           8           9          10
 ........................................................................................................................
   1   2.0000E-03  2.0000E-03   0.000       0.000       0.000       0.000       0.000       0.000       0.000       0.000    
   2   4.0000E-04  2.0000E-03  2.0000E-03   0.000       0.000      4.0000E-04  4.0000E-04  4.0000E-04   0.000       0.000    
   3    0.000      4.0000E-04  2.0000E-03  2.0000E-03  4.0000E-04  4.0000E-04  4.0000E-04  4.0000E-04   0.000       0.000    
   4   4.0000E-04  4.0000E-04  4.0000E-04  2.0000E-03  2.0000E-03  2.0000E-03  4.0000E-04  4.0000E-04  4.0000E-04   0.000    
   5   4.0000E-04  4.0000E-04  4.0000E-04  2.0000E-03  2.0000E-03  2.0000E-03  2.0000E-03  2.0000E-03  2.0000E-03  2.0000E-03
   6   4.0000E-04  4.0000E-04  4.0000E-04  2.0000E-03  2.0000E-03  2.0000E-03  2.0000E-03  2.0000E-03  4.0000E-04  4.0000E-04
   7   4.0000E-04  4.0000E-04  4.0000E-04  2.0000E-03  2.0000E-03  2.0000E-03  2.0000E-03  2.0000E-03  4.0000E-04   0.000    
   8    0.000      4.0000E-04  4.0000E-04  2.0000E-03  2.0000E-03  2.0000E-03  2.0000E-03  4.0000E-04  4.0000E-04   0.000    
   9    0.000      4.0000E-04  4.0000E-04  2.0000E-03  2.0000E-03  2.0000E-03  2.0000E-03  4.0000E-04  4.0000E-04   0.000    
  10    0.000      4.0000E-04  4.0000E-04  2.0000E-03  2.0000E-03  2.0000E-03  2.0000E-03  4.0000E-04  4.0000E-04  4.0000E-04
  11    0.000      4.0000E-04  4.0000E-04  2.0000E-03  2.0000E-03  2.0000E-03  2.0000E-03  4.0000E-04  4.0000E-04   0.000    
  12   4.0000E-04  4.0000E-04  2.0000E-03  2.0000E-03  2.0000E-03  2.0000E-03  2.0000E-03  4.0000E-04  4.0000E-04   0.000    
  13   2.0000E-03  2.0000E-03  2.0000E-03  2.0000E-03  2.0000E-03  2.0000E-03  2.0000E-03  2.0000E-03  2.0000E-03   0.000    
  14    0.000      4.0000E-04  4.0000E-04  4.0000E-04  4.0000E-04  4.0000E-04  4.0000E-04  4.0000E-04  2.0000E-03   0.000    
  15    0.000       0.000      4.0000E-04  4.0000E-04  4.0000E-04  4.0000E-04   0.000       0.000       0.000       0.000    

      VERTICAL HYD. COND. =  1.000000E-06 FOR LAYER   1

         SPECIFIC STORAGE =  1.000000E-06 FOR LAYER   1



                     SPECIFIC YIELD FOR LAYER   1
 READING ON UNIT    7 WITH FORMAT: (10F5.0)            

            1           2           3           4           5           6           7           8           9          10
 ........................................................................................................................
   1   0.2000      0.2000       0.000       0.000       0.000       0.000       0.000       0.000       0.000       0.000    
   2   0.1000      0.2000      0.2000       0.000       0.000      0.1000      0.1000      0.1000       0.000       0.000    
   3    0.000      0.1000      0.2000      0.2000      0.1000      0.1000      0.1000      0.1000       0.000       0.000    
   4   0.1000      0.1000      0.1000      0.2000      0.2000      0.2000      0.1000      0.1000      0.1000       0.000    
   5   0.1000      0.1000      0.1000      0.2000      0.2000      0.2000      0.2000      0.2000      0.2000      0.2000    
   6   0.1000      0.1000      0.1000      0.2000      0.2000      0.2000      0.2000      0.2000      0.1000      0.1000    
   7   0.1000      0.1000      0.1000      0.2000      0.2000      0.2000      0.2000      0.2000      0.1000       0.000    
   8    0.000      0.1000      0.1000      0.2000      0.2000      0.2000      0.2000      0.1000      0.1000       0.000    
   9    0.000      0.1000      0.1000      0.2000      0.2000      0.2000      0.2000      0.1000      0.1000       0.000    
  10    0.000      0.1000      0.1000      0.2000      0.2000      0.2000      0.2000      0.1000      0.1000      0.1000    
  11    0.000      0.1000      0.1000      0.2000      0.2000      0.2000      0.2000      0.1000      0.1000       0.000    
  12   0.1000      0.1000      0.2000      0.2000      0.2000      0.2000      0.2000      0.1000      0.1000       0.000    
  13   0.2000      0.2000      0.2000      0.2000      0.2000      0.2000      0.2000      0.2000      0.2000       0.000    
  14    0.000      0.1000      0.1000      0.1000      0.1000      0.1000      0.1000      0.1000      0.2000       0.000    
  15    0.000       0.000      0.1000      0.1000      0.1000      0.1000       0.000       0.000       0.000       0.000    

 WEL -- WELL PACKAGE FOR NWT VERSION 1.1.3,  8/01/2017 INPUT READ FROM UNIT   16
 #Well Package input for test simulation 2
 No named parameters
 MAXIMUM OF     10 ACTIVE WELLS AT ONE TIME
 CELL-BY-CELL FLOWS WILL BE PRINTED WHEN ICBCFL NOT 0
 No named parameters
  PHIRAMP WILL BE SET TO A DEFAULT VALUE OF 1.0E-5
  WELLS WITH REDUCED PUMPING WILL BE REPORTED TO THE MAIN LISTING FILE


     0 Well parameters

 GHB -- GENERAL-HEAD BOUNDARY PACKAGE, VERSION 7, 5/2/2005
         INPUT READ FROM UNIT   17
 No named parameters
 MAXIMUM OF      2 ACTIVE GHB CELLS AT ONE TIME
 CELL-BY-CELL FLOWS WILL BE PRINTED WHEN ICBCFL NOT 0


     0 GHB parameters

 SFR7 -- STREAMFLOW ROUTING PACKAGE, VERSION 1.0.5, 2012-04-05
         INPUT READ FROM UNIT  15
 #SFR2 Package input for Test Simulation 2
 No named parameters

 PROCESSING SFR2 OPTIONS
 
 
Stream loss will be calculated as a factor of the streambed hydraulic conductivity. Multiplication factor is equal to     0.1000000015E+00

 END PROCESSING SFR2 OPTIONS
 


 NUMBER OF STREAM REACHES IS   36

 NUMBER OF STREAM SEGMENTS IS    8

 NUMBER OF STREAM PARAMETERS IS    0

 NUMBER OF STREAM SEGMENTS DEFINED USING PARAMETERS IS              0

 MAXIMUM ERROR FOR STREAM LEAKAGE RATES IS  1.00E-06

 CONSTANT FOR MANNINGS EQUATION IS  1.4860E+00



 STREAM OUTPUT WILL BE WRITTEN TO FILE ON UNIT   81


   STREAM NETWORK DESCRIPTION: 

   LAYER    ROW    COL   SEGMENT   REACH     LENGTH
                          NUMBER   NUMBER    IN CELL        
   --------------------------------------------------
      1      1      1       1        1    4.5000E+03
      1      2      2       1        2    7.0000E+03
      1      3      3       1        3    6.0000E+03
      1      3      4       1        4    5.5500E+03
      1      4      5       2        1    6.5000E+03
      1      5      6       2        2    5.0000E+03
      1      6      6       2        3    5.0000E+03
      1      7      6       2        4    5.0000E+03
      1      8      6       2        5    5.0000E+03
      1      3      5       3        1    5.0000E+03
      1      3      6       3        2    5.0000E+03
      1      3      7       3        3    4.5000E+03
      1      4      8       3        4    6.0000E+03
      1      5      8       3        5    5.0000E+03
      1      6      8       3        6    2.0000E+03
      1      5     10       4        1    2.5000E+03
      1      5      9       4        2    5.0000E+03
      1      6      8       4        3    3.5000E+03
      1      6      8       5        1    4.0000E+03
      1      7      7       5        2    5.0000E+03
      1      8      7       5        3    3.5000E+03
      1      8      6       5        4    2.5000E+03
      1      9      6       6        1    5.0000E+03
      1     10      7       6        2    5.0000E+03
      1     11      7       6        3    5.0000E+03
      1     12      7       6        4    5.0000E+03
      1     13      7       6        5    2.0000E+03
      1     14      9       7        1    5.0000E+03
      1     13      8       7        2    5.5000E+03
      1     13      7       7        3    5.0000E+03
      1     13      6       8        1    5.0000E+03
      1     13      5       8        2    5.0000E+03
      1     13      4       8        3    5.0000E+03
      1     13      3       8        4    5.0000E+03
      1     13      2       8        5    5.0000E+03
      1     13      1       8        6    3.0000E+03




 UZF1 -- UNSATURATED FLOW PACKAGE, VERSION 1.4, 02/06/2012
         INPUT READ FROM UNIT 19
 #UZF Package input for test simulation 2
 No named parameters

 PROCESSING UZF OPTIONS
 
 
 INITIAL WATER CONTENT (THTI) WILL BE 
READ FOR THE FIRST SS OR TR STRESS PERIOD
 
 
 RESIDUAL WATER CONTENT (THTR) WILL BE 
READ AND USED FOR THE FIRST TRANSIENT STRESS 
PERIOD
 
  OUTPUT WILL BE WRITTEN TO NETRECH AND NETDIS FILES WITH UNIT NUMBERS        100       101, RESPECTIVELY
 
 A SQUARE ET FUNCTION WILL BE USED TO SIMULATE GW ET
 
 
INFILTRATION WILL BE REJECTED USING 
LAND SURFACE K
 
 
HYDRAULIC CONDUCTIVITY OF LAND SURFACE 
WILL BE READ
 

 END PROCESSING UZF OPTIONS



            AREAL EXTENT OF UZ FLOW
 READING ON UNIT   19 WITH FORMAT: (20I4)              

                1           2           3           4           5           6           7           8           9          10
 ............................................................................................................................
   1            1           1           0           0           0           0           0           0           0           0
   2            1           1           1           0           0           1           1           1           0           0
   3            0           1           1           1           1           1           1           1           0           0
   4            1           1           1           1           1           1           1           1           1           0
   5            1           1           1           1           1           1           1           1           1           1
   6            1           1           1           1           1           1           1           1           1           1
   7            1           1           1           1           1           1           1           1           1           0
   8            0           1           1           1           1           1           1           1           1           0
   9            0           1           1           1           1           1           1           1           1           0
  10            0           1           1           1           1           1           1           1           1           1
  11            0           1           1           1           1           1           1           1           1           0
  12            1           1           1           1           1           1           1           1           1           0
  13            1           1           1           1           1           1           1           1           1           0
  14            0           1           1           1           1           1           1           1           1           0
  15            0           0           1           1           1           1           0           0           0           0
 OPTION 1 -- RECHARGE IN UZF TO TOP LAYER ONLY 



            ROUTING OVERLAND RUNOFF
 READING ON UNIT   19 WITH FORMAT: (20I4)              

                1           2           3           4           5           6           7           8           9          10
 ............................................................................................................................
   1            1           1           0           0           0           0           0           0           0           0
   2            1           1           1           0           0           3           3           3           0           0
   3            0           1           1           1           3           3           3           3           0           0
   4            8           8           2           2           2           2           2           3           3           0
   5            8           8           8           8           2           2           2           3           4           4
   6            8           8           8           8           8           2           2           4           4           4
   7            8           8           8           8           8           2           5           5           5           0
   8            0           8           8           8           8           2           5           5           5           0
   9            0           8           8           8           8           6           6           6           6           0
  10            0           8           8           8           8           6           6           6           6           6
  11            0           8           8           8           8           8           6           6           7           0
  12            8           8           8           8           8           8           6           7           7           0
  13            8           8           8           8           8           8           7           7           7           0
  14            0           8           8           8           8           8           7           7           7           0
  15            0           0           8           8           8           8           0           0           0           0



               SATURATED VERTICAL K
 READING ON UNIT   19 WITH FORMAT: (10F4.0)            

            1           2           3           4           5           6           7           8           9          10
 ........................................................................................................................
   1   5.0000E-08  5.0000E-08   0.000       0.000       0.000       0.000       0.000       0.000       0.000       0.000    
   2   5.0000E-08  5.0000E-08  5.0000E-08   0.000       0.000      5.0000E-08  5.0000E-08  5.0000E-08   0.000       0.000    
   3    0.000      5.0000E-08  5.0000E-08  5.0000E-08  5.0000E-08  5.0000E-08  5.0000E-08  5.0000E-08   0.000       0.000    
   4   5.0000E-08  5.0000E-08  5.0000E-08  5.0000E-08  5.0000E-08  5.0000E-08  5.0000E-08  5.0000E-08  5.0000E-08   0.000    
   5   5.0000E-08  5.0000E-08  5.0000E-08  5.0000E-08  5.0000E-08  5.0000E-08  5.0000E-08  5.0000E-08  5.0000E-08  5.0000E-08
   6   5.0000E-08  5.0000E-08  5.0000E-08  5.0000E-08  5.0000E-08  5.0000E-08  5.0000E-08  5.0000E-08  5.0000E-08  5.0000E-08
   7   5.0000E-08  5.0000E-08  5.0000E-08  5.0000E-08  5.0000E-08  5.0000E-08  5.0000E-08  5.0000E-08  5.0000E-08   0.000    
   8    0.000      5.0000E-08  5.0000E-08  5.0000E-08  5.0000E-08  5.0000E-08  5.0000E-08  5.0000E-08  5.0000E-08   0.000    
   9    0.000      5.0000E-08  5.0000E-08  5.0000E-08  5.0000E-08  5.0000E-08  5.0000E-08  5.0000E-08  5.0000E-08   0.000    
  10    0.000      5.0000E-08  5.0000E-08  5.0000E-08  5.0000E-08  5.0000E-08  5.0000E-08  5.0000E-08  5.0000E-08  5.0000E-08
  11    0.000      5.0000E-08  5.0000E-08  5.0000E-08  5.0000E-08  5.0000E-08  5.0000E-08  5.0000E-08  5.0000E-08   0.000    
  12   5.0000E-08  5.0000E-08  5.0000E-08  5.0000E-08  5.0000E-08  5.0000E-08  5.0000E-08  5.0000E-08  5.0000E-08   0.000    
  13   5.0000E-08  5.0000E-08  5.0000E-08  5.0000E-08  5.0000E-08  5.0000E-08  5.0000E-08  5.0000E-08  5.0000E-08   0.000    
  14    0.000      5.0000E-08  5.0000E-08  5.0000E-08  5.0000E-08  5.0000E-08  5.0000E-08  5.0000E-08  5.0000E-08   0.000    
  15    0.000       0.000      5.0000E-08  5.0000E-08  5.0000E-08  5.0000E-08   0.000       0.000       0.000       0.000    



            LAND SURFACE VERTICAL K
 READING ON UNIT   19 WITH FORMAT: (10F4.0)            

            1           2           3           4           5           6           7           8           9          10
 ........................................................................................................................
   1   1.0000E-09  1.0000E-09   0.000       0.000       0.000       0.000       0.000       0.000       0.000       0.000    
   2   1.0000E-09  1.0000E-09  1.0000E-09   0.000       0.000      1.0000E-09  1.0000E-09  1.0000E-09   0.000       0.000    
   3    0.000      1.0000E-09  1.0000E-09  1.0000E-09  1.0000E-09  1.0000E-09  1.0000E-09  1.0000E-09   0.000       0.000    
   4   1.0000E-09  1.0000E-09  1.0000E-09  1.0000E-09  1.0000E-09  1.0000E-09  1.0000E-09  1.0000E-09  1.0000E-09   0.000    
   5   1.0000E-09  1.0000E-09  1.0000E-09  1.0000E-09  1.0000E-09  1.0000E-09  1.0000E-09  1.0000E-09  1.0000E-09  1.0000E-09
   6   1.0000E-09  1.0000E-09  1.0000E-09  1.0000E-09  1.0000E-09  1.0000E-09  1.0000E-09  1.0000E-09  1.0000E-09  1.0000E-09
   7   1.0000E-09  1.0000E-09  1.0000E-09  1.0000E-09  1.0000E-09  1.0000E-09  1.0000E-09  1.0000E-09  1.0000E-09   0.000    
   8    0.000      1.0000E-09  1.0000E-09  1.0000E-09  1.0000E-09  1.0000E-09  1.0000E-09  1.0000E-09  1.0000E-09   0.000    
   9    0.000      1.0000E-09  1.0000E-09  1.0000E-09  1.0000E-09  1.0000E-09  1.0000E-09  1.0000E-09  1.0000E-09   0.000    
  10    0.000      1.0000E-09  1.0000E-09  1.0000E-09  1.0000E-09  1.0000E-09  1.0000E-09  1.0000E-09  1.0000E-09  1.0000E-09
  11    0.000      1.0000E-09  1.0000E-09  1.0000E-09  1.0000E-09  1.0000E-09  1.0000E-09  1.0000E-09  1.0000E-09   0.000    
  12   1.0000E-09  1.0000E-09  1.0000E-09  1.0000E-09  1.0000E-09  1.0000E-09  1.0000E-09  1.0000E-09  1.0000E-09   0.000    
  13   1.0000E-09  1.0000E-09  1.0000E-09  1.0000E-09  1.0000E-09  1.0000E-09  1.0000E-09  1.0000E-09  1.0000E-09   0.000    
  14    0.000      1.0000E-09  1.0000E-09  1.0000E-09  1.0000E-09  1.0000E-09  1.0000E-09  1.0000E-09  1.0000E-09   0.000    
  15    0.000       0.000      1.0000E-09  1.0000E-09  1.0000E-09  1.0000E-09   0.000       0.000       0.000       0.000    

     BROOKS-COREY EPSILON =   3.50000    

  SATURATED WATER CONTENT =  0.300000    

   RESIDUAL WATER CONTENT =  5.000000E-02

    INITIAL WATER CONTENT =  6.000000E-02

UNSATURATED FLOW RESULTS WILL BE PRINTED TO SEPARATE FILES FOR SELECTED MODEL CELLS, AND TIME STEPS AS DEFINED BY OUTPUT CONTROL PACKAGE 

SELECTED MODEL CELLS ARE: 
 ROW NUMBER  COLUMN NUMBER  FORTRAN UNIT NUMBER  OUTPUT OPTION


       3             6                 65                 1
       6             3                 66                 2
      10             5                 67                 3
       0             0                 68                 4



   9 GAGING STATIONS WERE SPECIFIED.
     (Lakes are identified by a negative value of the Lake Number)
     RECORDS WILL BE WRITTEN TO SEPARATE OUTPUT FILES REPRESENTED BY FOLLOWING UNIT NUMBERS:

 Stream Gages:
  GAGE #   SEGMENT   REACH   UNIT   OUTTYPE
       1       1       4      83       1
       2       2       3      84       1
       3       3       5      85       1
       4       4       3      86       1
       5       5       4      87       4
       6       6       5      88       4
       7       7       3      89       4
       8       8       6      90       4
       9       3       1      91       5




1
                            STRESS PERIOD NO.    1, LENGTH =   2628000.    
                            -----------------------------------------------

                              NUMBER OF TIME STEPS =     1

                               MULTIPLIER FOR DELT =     1.000

                            INITIAL TIME STEP SIZE =   2628000.    

 WELL NO.  LAYER   ROW   COL   STRESS RATE         
 --------------------------------------------------
      1      1      6      4      -1.000    
      2      1      6      5      -1.000    
      3      1      7      4      -1.000    
      4      1      7      5      -1.000    
      5      1      8      4      -1.000    
      6      1      8      5      -1.000    
      7      1      9      4      -1.000    
      8      1      9      5      -1.000    
      9      1     10      4      -1.000    
     10      1     10      5      -1.000    

     10 WELLS

 BOUND. NO. LAYER   ROW   COL     STAGE      CONDUCTANCE         
 ----------------------------------------------------------------
      1      1     13      1       988.0          0.3800E-01
      2      1     14      9       1045.          0.3800E-01

      2 GHB CELLS



 CLASSIFICATION & COUNT OF STREAM SEGMENTS BASED ON SOURCE OF INFLOW:

                HEADWATER     DIVERSION     RECEIVES TRIBUTARY FLOW
                ---------     ---------     -----------------------
                     3              1               4



                    INPUT DATA FOR EACH STREAM SEGMENT
 ---------------------------------------------------------------------------------------------

 SEGMENT    SEG.     INFLOW   OVERLAND   STREAM    STREAM   ICALC  OUTFLOW  DIVERSION PRIORITY
    NO.    LENGTH     RATE     RUNOFF      ET       PPT.    METH.  TO SEG.  FROM SEG.    NO.

      1  2.305E+04 2.500E+01 0.000E+00 0.000E+00 0.000E+00    4        2        0        0
      2  2.650E+04 0.000E+00 0.000E+00 0.000E+00 0.000E+00    1        6        0        0
      3  2.750E+04 1.000E+01 0.000E+00 0.000E+00 0.000E+00    0        5        1        0
      4  1.100E+04 1.000E+01 0.000E+00 0.000E+00 0.000E+00    1        5        0        0
      5  1.500E+04 0.000E+00 0.000E+00 0.000E+00 0.000E+00    3        6        0        0
      6  2.200E+04 0.000E+00 0.000E+00 0.000E+00 0.000E+00    1        8        0        0
      7  1.550E+04 1.500E+02 0.000E+00 0.000E+00 0.000E+00    2        8        0        0
      8  2.800E+04 0.000E+00 0.000E+00 0.000E+00 0.000E+00    2        0        0        0


         STREAMBED PROPERTIES AND STREAM DIMENSIONS

 SEGMENT     BED HYD. COND.      BED THICKNESS     ELEV.-TOP OF BED     WIDTH OF STREAM     DEPTH OF STREAM    STREAM ROUGHNESS
    No.     UPPER     LOWER     UPPER     LOWER     UPPER     LOWER     UPPER     LOWER     UPPER     LOWER   CHANNEL      BANK

     1  3.000E-05 3.000E-05 3.000E+00 3.000E+00 1.095E+03 1.075E+03
     2  3.000E-05 3.000E-05 3.000E+00 3.000E+00 1.075E+03 1.050E+03 1.200E+01 1.200E+01                     3.000E-02
     3  3.000E-05 3.000E-05 2.000E+00 2.000E+00 1.075E+03 1.060E+03 1.000E+01 6.000E+00 2.000E+00 1.000E+00
     4  3.000E-05 3.000E-05 3.000E+00 3.000E+00 1.080E+03 1.060E+03 1.000E+01 1.000E+01                     3.000E-02
     5  3.000E-05 3.000E-05 3.000E+00 3.000E+00 1.060E+03 1.045E+03
     6  3.000E-05 3.000E-05 3.000E+00 3.000E+00 1.045E+03 1.025E+03 1.200E+01 1.200E+01                     3.000E-02
     7  6.000E-05 6.000E-05 3.000E+00 3.000E+00 1.040E+03 1.025E+03                                         2.500E-02 4.500E-02
     8  6.000E-05 6.000E-05 3.000E+00 3.000E+00 1.025E+03 9.900E+02                                         2.500E-02 4.500E-02

  EIGHT POINT CROSS-SECTION DATA FOR SEGMENTS WITH ICALC = 2
    X VALUES X VALUES START FROM LEFT SIDE LOOKING DOWNSTREAM

     SEGMENT NO.        X1        X2        X3        X4        X5        X6        X7        X8
            7      0.000E+00 1.000E+01 8.000E+01 1.000E+02 1.500E+02 1.700E+02 2.400E+02 2.500E+02
            8      0.000E+00 1.000E+01 8.000E+01 1.000E+02 1.500E+02 1.700E+02 2.400E+02 2.500E+02

    Z VALUES ARE RELATIVE TO STREAMBED ELEVATION

     SEGMENT NO.          Z1        Z2        Z3        Z4        Z5        Z6        Z7        Z8
            7      2.000E+01 1.300E+01 1.000E+01 2.000E+00 0.000E+00 1.000E+01 1.300E+01 2.000E+01
            8      2.500E+01 1.700E+01 1.300E+01 4.000E+00 0.000E+00 1.000E+01 1.600E+01 2.000E+01

 STREAMFLOW RELATION WITH DEPTH IS BASED ON EQUATION Q = CDPTH*(DEPTH)**FDPTH
 STREAMFLOW RELATION WITH WIDTH IS BASED ON EQUATION Q = AWDTH*(WIDTH)**BWDTH

 SEGMENT NO.      CDPTH     FDPTH    AWDTH     BWDTH

          5 3.000E-01 3.500E-01 3.800E+00 6.000E-01

 STREAMFLOW RELATION WITH DEPTH AND WIDTH IS BASED ON TABULATED VALUES

  SEGMENT NO.   STREAMFLOW       DEPTH       WIDTH

          1     5.0000E-01   2.5000E-01   3.0000E+00
          1     1.0000E+00   4.0000E-01   3.5000E+00
          1     2.0000E+00   5.5000E-01   4.2000E+00
          1     4.0000E+00   7.0000E-01   5.3000E+00
          1     7.0000E+00   8.0000E-01   7.0000E+00
          1     1.0000E+01   9.0000E-01   8.5000E+00
          1     2.0000E+01   1.1000E+00   1.2000E+01
          1     3.0000E+01   1.2500E+00   1.4000E+01
          1     5.0000E+01   1.4000E+00   1.7000E+01
          1     7.5000E+01   1.7000E+00   2.0000E+01
          1     1.0000E+02   1.8000E+00   2.2000E+01






            AREAL INFILTRATION RATE
 READING ON UNIT   19 WITH FORMAT: (10F4.0)            

            1           2           3           4           5           6           7           8           9          10
 ........................................................................................................................
   1   1.0000E-09  2.0000E-09   0.000       0.000       0.000       0.000       0.000       0.000       0.000       0.000    
   2   2.0000E-09  1.0000E-09  2.0000E-09   0.000       0.000      8.0000E-09  8.0000E-09  5.0000E-09   0.000       0.000    
   3    0.000      5.0000E-09  1.0000E-09  1.0000E-09  8.0000E-09  8.0000E-09  5.0000E-09  5.0000E-09   0.000       0.000    
   4   8.0000E-09  5.0000E-09  1.0000E-09  1.0000E-09  1.0000E-09  1.0000E-09  1.0000E-09  1.0000E-09  2.0000E-09   0.000    
   5   8.0000E-09  5.0000E-09  1.0000E-09  1.0000E-09  1.0000E-09  1.0000E-09  1.0000E-09  1.0000E-09  1.0000E-09  1.0000E-09
   6   8.0000E-09  5.0000E-09  5.0000E-09  2.0000E-09  2.0000E-09  1.0000E-09  1.0000E-09  1.0000E-09  1.0000E-09  5.0000E-09
   7   8.0000E-09  5.0000E-09  5.0000E-09  2.0000E-09  2.0000E-09  1.0000E-09  1.0000E-09  2.0000E-09  2.0000E-09   0.000    
   8    0.000      5.0000E-09  5.0000E-09  2.0000E-09  2.0000E-09  1.0000E-09  1.0000E-09  2.0000E-09  5.0000E-09   0.000    
   9    0.000      5.0000E-09  5.0000E-09  2.0000E-09  2.0000E-09  1.0000E-09  1.0000E-09  2.0000E-09  5.0000E-09   0.000    
  10    0.000      5.0000E-09  5.0000E-09  2.0000E-09  2.0000E-09  1.0000E-09  1.0000E-09  2.0000E-09  5.0000E-09  8.0000E-09
  11    0.000      1.0000E-09  1.0000E-09  1.0000E-09  1.0000E-09  1.0000E-09  1.0000E-09  2.0000E-09  5.0000E-09   0.000    
  12   1.0000E-09  1.0000E-09  1.0000E-09  1.0000E-09  1.0000E-09  1.0000E-09  1.0000E-09  1.0000E-09  2.0000E-09   0.000    
  13   1.0000E-09  1.0000E-09  2.0000E-09  2.0000E-09  2.0000E-09  2.0000E-09  2.0000E-09  1.0000E-09  1.0000E-09   0.000    
  14    0.000      2.0000E-09  5.0000E-09  5.0000E-09  5.0000E-09  5.0000E-09  5.0000E-09  2.0000E-09  1.0000E-09   0.000    
  15    0.000       0.000      8.0000E-09  8.0000E-09  8.0000E-09  8.0000E-09   0.000       0.000       0.000       0.000    

                  ET RATE =  1.000000E-08

      ET EXTINCTION DEPTH =   5.00000    



           EXTINCTION WATER CONTENT
 READING ON UNIT   19 WITH FORMAT: (10F4.0)            

            1           2           3           4           5           6           7           8           9          10
 ........................................................................................................................
   1   0.1000      0.1000       0.000       0.000       0.000       0.000       0.000       0.000       0.000       0.000    
   2   0.2000      0.1000      0.1000       0.000       0.000      0.2000      0.2000      0.2000       0.000       0.000    
   3    0.000      0.2000      0.1000      0.1000      0.2000      0.2000      0.2000      0.2000       0.000       0.000    
   4   0.2000      0.2000      0.2000      0.1000      0.1000      0.1000      0.2000      0.2000      0.2000      0.1000    
   5   0.2000      0.2000      0.2000      0.1000      0.1000      0.1000      0.1000      0.1000      0.1000      0.1000    
   6   0.2000      0.2000      0.2000      0.1000      0.1000      0.1000      0.1000      0.1000      0.2000      0.2000    
   7   0.2000      0.2000      0.2000      0.1000      0.1000      0.1000      0.1000      0.1000      0.2000       0.000    
   8    0.000      0.2000      0.2000      0.1000      0.1000      0.1000      0.1000      0.2000      0.2000       0.000    
   9    0.000      0.2000      0.2000      0.1000      0.1000      0.1000      0.1000      0.2000      0.2000       0.000    
  10    0.000      0.2000      0.2000      0.1000      0.1000      0.1000      0.1000      0.2000      0.2000      0.2000    
  11    0.000      0.2000      0.2000      0.1000      0.1000      0.1000      0.1000      0.2000      0.2000       0.000    
  12   0.2000      0.2000      0.1000      0.1000      0.1000      0.1000      0.1000      0.2000      0.2000       0.000    
  13   0.1000      0.1000      0.1000      0.1000      0.1000      0.1000      0.1000      0.1000      0.1000       0.000    
  14    0.000      0.2000      0.2000      0.2000      0.2000      0.2000      0.2000      0.2000      0.1000       0.000    
  15    0.000       0.000      0.2000      0.2000      0.2000      0.2000       0.000       0.000       0.000       0.000    
 
 SOLVING FOR HEAD 
                                                   Max.-Head-Change                         Max.-Flux-Residual
  Residual-Control   Outer-Iter.   Inner-Iter.     Column Row Layer    Maximum-Head-Change  Column Row Layer    Maximum-Flux-Residual          L2-NORM 
          0                 1           6             3    3     1      -0.2424761391E+02       4   13    1         0.3321221227E+01      0.9936674197E+01
          0                 2           6             1    1     1      -0.4516144916E+02       1   13    1        -0.8746237613E+01      0.1141483916E+02
          0                 3           6             5   13     1      -0.1767201235E+01       5   13    1        -0.3407572882E+01      0.3571281898E+01
          0                 4           6             4   13     1      -0.3897499618E+00       4   13    1        -0.6944371813E+00      0.7420989856E+00
          0                 5           4             4   13     1       0.3125570618E-01       4   13    1         0.5974002014E-01      0.6752122617E-01
          0                 6           5             4   13     1      -0.2463641793E-02       4   13    1        -0.4613992887E-02      0.5864503351E-02
          0                 7           1             4   13     1       0.1461597854E-03       4   13    1         0.3078526186E-03      0.4697589862E-03
          0                 8           1             4   13     1      -0.7798934610E-05       4   13    1        -0.1800566315E-04      0.3023621665E-04

    ------------------------------------------------
       NWT REQUIRED            8 OUTER ITERATIONS 
       AND A TOTAL OF         35 INNER ITERATIONS.
    ------------------------------------------------

 OUTPUT CONTROL FOR STRESS PERIOD    1   TIME STEP    1
    PRINT BUDGET
    SAVE BUDGET

            WELLS   PERIOD    1   STEP   1
 WELL      1   LAYER   1   ROW     6   COL     4   RATE    -1.00000    
 WELL      2   LAYER   1   ROW     6   COL     5   RATE    -1.00000    
 WELL      3   LAYER   1   ROW     7   COL     4   RATE    -1.00000    
 WELL      4   LAYER   1   ROW     7   COL     5   RATE    -1.00000    
 WELL      5   LAYER   1   ROW     8   COL     4   RATE    -1.00000    
 WELL      6   LAYER   1   ROW     8   COL     5   RATE    -1.00000    
 WELL      7   LAYER   1   ROW     9   COL     4   RATE    -1.00000    
 WELL      8   LAYER   1   ROW     9   COL     5   RATE    -1.00000    
 WELL      9   LAYER   1   ROW    10   COL     4   RATE    -1.00000    
 WELL     10   LAYER   1   ROW    10   COL     5   RATE    -1.00000    

  HEAD DEP BOUNDS   PERIOD    1   STEP     1
 BOUNDARY      1   LAYER   1   ROW    13   COL     1   RATE   -0.286015    
 BOUNDARY      2   LAYER   1   ROW    14   COL     9   RATE    0.299905    



 STREAM LISTING     PERIOD      1   STEP        1

 LAYER ROW COL. STREAM  RCH.  FLOW INTO     FLOW TO   FLOW OUT OF   OVRLND.     DIRECT     STREAM       STREAM     STREAM     STREAM   STREAMBED  STREAMBED
                SEG.NO.  NO.  STRM. RCH.    AQUIFER    STRM. RCH.    RUNOFF     PRECIP       ET          HEAD       DEPTH      WIDTH   CONDCTNC.   GRADIENT

   1    1    1     1     1    2.5000E+01  2.4523E-01   2.4789E+01  3.416E-02  0.000E+00  0.000E+00  1.09423E+03  1.179E+00  1.304E+01  5.869E-02  1.393E+00
   1    2    2     1     2    2.4789E+01  3.7953E-01   2.4463E+01  5.315E-02  0.000E+00  0.000E+00  1.08923E+03  1.175E+00  1.299E+01  9.091E-02  1.392E+00
   1    3    3     1     3    2.4463E+01  3.2343E-01   2.4185E+01  4.555E-02  0.000E+00  0.000E+00  1.08359E+03  1.170E+00  1.293E+01  7.756E-02  1.390E+00
   1    3    4     1     4    2.4185E+01  2.9763E-01   2.3929E+01  4.214E-02  0.000E+00  0.000E+00  1.07857E+03  1.166E+00  1.287E+01  7.144E-02  1.389E+00
   1    4    5     2     1    1.3929E+01  3.0031E-08   1.3929E+01  0.000E+00  0.000E+00  0.000E+00  1.07278E+03  8.502E-01  1.200E+01  7.800E-09  1.283E+00
   1    5    6     2     2    1.3929E+01  2.3101E-08   1.3929E+01  0.000E+00  0.000E+00  0.000E+00  1.06736E+03  8.502E-01  1.200E+01  6.000E-09  1.283E+00
   1    6    6     2     3    1.3929E+01  2.3101E-08   1.3929E+01  0.000E+00  0.000E+00  0.000E+00  1.06264E+03  8.502E-01  1.200E+01  6.000E-09  1.283E+00
   1    7    6     2     4    1.3929E+01  2.3101E-08   1.3929E+01  0.000E+00  0.000E+00  0.000E+00  1.05793E+03  8.502E-01  1.200E+01  6.000E-09  1.283E+00
   1    8    6     2     5    1.3929E+01  2.3101E-08   1.3929E+01  0.000E+00  0.000E+00  0.000E+00  1.05321E+03  8.502E-01  1.200E+01  6.000E-09  1.283E+00
   1    3    5     3     1    1.0000E+01  2.8252E-01   9.9038E+00  1.864E-01  0.000E+00  0.000E+00  1.07555E+03  1.909E+00  9.636E+00  7.227E-02  1.955E+00
   1    3    6     3     2    9.9038E+00  2.4905E-01   9.8412E+00  1.864E-01  0.000E+00  0.000E+00  1.07264E+03  1.727E+00  8.909E+00  6.682E-02  1.864E+00
   1    3    7     3     3    9.8412E+00  1.9718E-01   9.8117E+00  1.677E-01  0.000E+00  0.000E+00  1.06987E+03  1.555E+00  8.218E+00  5.547E-02  1.777E+00
   1    4    8     3     4    9.8117E+00  2.2567E-01   9.8097E+00  2.236E-01  0.000E+00  0.000E+00  1.06682E+03  1.364E+00  7.455E+00  6.709E-02  1.682E+00
   1    5    8     3     5    9.8097E+00  1.5790E-01   9.8381E+00  1.864E-01  0.000E+00  0.000E+00  1.06362E+03  1.164E+00  6.655E+00  4.991E-02  1.582E+00
   1    6    8     3     6    9.8381E+00  5.5980E-02   9.8567E+00  7.455E-02  0.000E+00  0.000E+00  1.06158E+03  1.036E+00  6.145E+00  1.844E-02  1.518E+00
   1    5   10     4     1    1.0000E+01  9.0974E-09   1.0023E+01  2.273E-02  0.000E+00  0.000E+00  1.07837E+03  6.389E-01  1.000E+01  2.500E-09  1.213E+00
   1    5    9     4     2    1.0023E+01  1.8201E-08   1.0068E+01  4.545E-02  0.000E+00  0.000E+00  1.07155E+03  6.403E-01  1.000E+01  5.000E-09  1.213E+00
   1    6    8     4     3    1.0068E+01  1.2746E-08   1.0100E+01  3.182E-02  0.000E+00  0.000E+00  1.06382E+03  6.417E-01  1.000E+01  3.500E-09  1.214E+00
   1    6    8     5     1    1.9957E+01  3.5132E-01   1.9652E+01  4.667E-02  0.000E+00  0.000E+00  1.05885E+03  8.531E-01  2.280E+01  9.118E-02  1.284E+00
   1    7    7     5     2    1.9652E+01  4.3403E-01   1.9276E+01  5.833E-02  0.000E+00  0.000E+00  1.05435E+03  8.479E-01  2.256E+01  1.128E-01  1.283E+00
   1    8    7     5     3    1.9276E+01  3.0046E-01   1.9017E+01  4.083E-02  0.000E+00  0.000E+00  1.05009E+03  8.430E-01  2.234E+01  7.818E-02  1.281E+00
   1    8    6     5     4    1.9017E+01  2.1293E-01   1.8833E+01  2.917E-02  0.000E+00  0.000E+00  1.04709E+03  8.396E-01  2.218E+01  5.546E-02  1.280E+00
   1    9    6     6     1    3.2762E+01  2.6625E-08   3.2864E+01  1.023E-01  0.000E+00  0.000E+00  1.04416E+03  1.437E+00  1.200E+01  6.000E-09  1.479E+00
   1   10    7     6     2    3.2864E+01  2.6641E-08   3.2967E+01  1.023E-01  0.000E+00  0.000E+00  1.03962E+03  1.440E+00  1.200E+01  6.000E-09  1.480E+00
   1   11    7     6     3    3.2967E+01  2.6657E-08   3.3069E+01  1.023E-01  0.000E+00  0.000E+00  1.03508E+03  1.443E+00  1.200E+01  6.000E-09  1.481E+00
   1   12    7     6     4    3.3069E+01  2.6673E-08   3.3171E+01  1.023E-01  0.000E+00  0.000E+00  1.03054E+03  1.446E+00  1.200E+01  6.000E-09  1.482E+00
   1   13    7     6     5    3.3171E+01  5.5947E-07   3.3212E+01  4.091E-02  0.000E+00  0.000E+00  1.02736E+03  1.447E+00  1.200E+01  2.400E-07  7.770E-01
   1   14    9     7     1    1.5000E+02  1.5438E+00   1.4854E+02  8.871E-02  0.000E+00  0.000E+00  1.03987E+03  2.287E+00  5.529E+01  5.593E-01  9.201E-01
   1   13    8     7     2    1.4854E+02  2.5113E+00   1.4613E+02  9.758E-02  0.000E+00  0.000E+00  1.03478E+03  2.277E+00  5.525E+01  6.147E-01  1.362E+00
   1   13    7     7     3    1.4613E+02  2.5997E+00   1.4362E+02  8.871E-02  0.000E+00  0.000E+00  1.02968E+03  2.264E+00  5.519E+01  5.581E-01  1.553E+00
   1   13    6     8     1    1.7683E+02  2.0083E+00   1.7543E+02  6.027E-01  0.000E+00  0.000E+00  1.02487E+03  2.992E+00  4.338E+01  4.421E-01  1.514E+00
   1   13    5     8     2    1.7543E+02  1.1929E+00   1.7484E+02  6.027E-01  0.000E+00  0.000E+00  1.01861E+03  2.985E+00  4.329E+01  4.411E-01  9.014E-01
   1   13    4     8     3    1.7484E+02  2.3323E-01   1.7521E+02  6.027E-01  0.000E+00  0.000E+00  1.01236E+03  2.985E+00  4.328E+01  4.410E-01  1.763E-01
   1   13    3     8     4    1.7521E+02 -1.8102E+00   1.7762E+02  6.027E-01  0.000E+00  0.000E+00  1.00612E+03  2.993E+00  4.341E+01  4.423E+00 -1.364E-01
   1   13    2     8     5    1.7762E+02 -1.9725E+00   1.8019E+02  6.027E-01  0.000E+00  0.000E+00  9.99884E+02  3.009E+00  4.363E+01  4.447E+00 -1.479E-01
   1   13    1     8     6    1.8019E+02 -1.6833E+00   1.8224E+02  3.616E-01  0.000E+00  0.000E+00  9.94899E+02  3.024E+00  4.384E+01  2.681E+00 -2.093E-01



 UBDSV3 SAVING "     NETRECHARGE" ON UNIT 100 AT TIME STEP     1, STRESS PERIOD   1
 UBDSV3 SAVING "    NETDISCHARGE" ON UNIT 101 AT TIME STEP     1, STRESS PERIOD   1
 UBDSV3 SAVING "           GW ET" ON UNIT  61 AT TIME STEP     1, STRESS PERIOD   1
 UBDSV3 SAVING "    UZF RECHARGE" ON UNIT  61 AT TIME STEP     1, STRESS PERIOD   1
 UBDSV3 SAVING " SURFACE LEAKAGE" ON UNIT  61 AT TIME STEP     1, STRESS PERIOD   1
 UBDSV3 SAVING "       HORT+DUNN" ON UNIT  61 AT TIME STEP     1, STRESS PERIOD   1
 UBDSV3 SAVING "  STORAGE CHANGE" ON UNIT  61 AT TIME STEP     1, STRESS PERIOD   1


UNSATURATED ZONE PACKAGE VOLUMETRIC BUDGET FOR  TIME STEP     1 STRESS PERIOD    1
  ------------------------------------------------------------------------------



     CUMULATIVE VOLUMES      L**3       RATES FOR THIS TIME STEP      L**3/T
     ------------------                 ------------------------

           IN:                                      IN:
           ---                                      ---
        INFILTRATION =     7621200.0000          INFILTRATION =           2.9000

          OUT:                                     OUT:
          ----                                     ----
              UZF ET =       0.0000E+00                UZF ET =       0.0000E+00
        UZF RECHARGE =     7621200.0000          UZF RECHARGE =           2.9000

            IN - OUT =       0.0000E+00              IN - OUT =       0.0000E+00

          STORAGE:                                 STORAGE:
          --------                                 --------
      STORAGE CHANGE =       0.0000E+00        STORAGE CHANGE =       0.0000E+00

 PERCENT DISCREPANCY IS DIFFERENCE BETWEEN IN-OUT MINUS CHANGE IN STORAGE
 DIVIDED BY THE AVERAGE OF IN AND OUT TIMES 100

 PERCENT DISCREPANCY =           0.00     PERCENT DISCREPANCY =           0.00






1
  VOLUMETRIC BUDGET FOR ENTIRE MODEL AT END OF TIME STEP    1, STRESS PERIOD   1
  ------------------------------------------------------------------------------

     CUMULATIVE VOLUMES      L**3       RATES FOR THIS TIME STEP      L**3/T
     ------------------                 ------------------------

           IN:                                      IN:
           ---                                      ---
             STORAGE =           0.0000               STORAGE =           0.0000
       CONSTANT HEAD =           0.0000         CONSTANT HEAD =           0.0000
               WELLS =           0.0000                 WELLS =           0.0000
     HEAD DEP BOUNDS =      788150.5625       HEAD DEP BOUNDS =           0.2999
      STREAM LEAKAGE =    36271904.0000        STREAM LEAKAGE =          13.8021
        UZF RECHARGE =     7621205.5000          UZF RECHARGE =           2.9000
               GW ET =           0.0000                 GW ET =           0.0000
     SURFACE LEAKAGE =           0.0000       SURFACE LEAKAGE =           0.0000

            TOTAL IN =    44681260.0000              TOTAL IN =          17.0020

          OUT:                                     OUT:
          ----                                     ----
             STORAGE =           0.0000               STORAGE =           0.0000
       CONSTANT HEAD =           0.0000         CONSTANT HEAD =           0.0000
               WELLS =    26280000.0000                 WELLS =          10.0000
     HEAD DEP BOUNDS =      751646.4375       HEAD DEP BOUNDS =           0.2860
      STREAM LEAKAGE =    14364591.0000        STREAM LEAKAGE =           5.4660
        UZF RECHARGE =           0.0000          UZF RECHARGE =           0.0000
               GW ET =     3285000.0000                 GW ET =           1.2500
     SURFACE LEAKAGE =           0.0000       SURFACE LEAKAGE =           0.0000

           TOTAL OUT =    44681236.0000             TOTAL OUT =          17.0020

            IN - OUT =          24.0000              IN - OUT =       7.6294E-06

 PERCENT DISCREPANCY =           0.00     PERCENT DISCREPANCY =           0.00






         TIME SUMMARY AT END OF TIME STEP    1 IN STRESS PERIOD    1
                    SECONDS     MINUTES      HOURS       DAYS        YEARS
                    -----------------------------------------------------------
   TIME STEP LENGTH 2.62800E+06  43800.      730.00      30.417     8.32763E-02
 STRESS PERIOD TIME 2.62800E+06  43800.      730.00      30.417     8.32763E-02
         TOTAL TIME 2.62800E+06  43800.      730.00      30.417     8.32763E-02
1
1
                            STRESS PERIOD NO.    2, LENGTH =   2628000.    
                            -----------------------------------------------

                              NUMBER OF TIME STEPS =    15

                               MULTIPLIER FOR DELT =     1.100

                            INITIAL TIME STEP SIZE =   82713.07    

 WELL NO.  LAYER   ROW   COL   STRESS RATE         
 --------------------------------------------------
      1      1      6      4      -4.000    
      2      1      6      5      -4.000    
      3      1      7      4      -4.000    
      4      1      7      5      -4.000    
      5      1      8      4      -4.000    
      6      1      8      5      -4.000    
      7      1      9      4      -4.000    
      8      1      9      5      -4.000    
      9      1     10      4      -4.000    
     10      1     10      5      -4.000    

     10 WELLS

 REUSING NON-PARAMETER GHB CELLS FROM LAST STRESS PERIOD

      2 GHB CELLS

 REUSING STREAM SEGMENT DATA FROM LAST STRESS PERIOD



            AREAL INFILTRATION RATE
 READING ON UNIT   19 WITH FORMAT: (10F4.0)            

            1           2           3           4           5           6           7           8           9          10
 ........................................................................................................................
   1   8.0000E-09  1.6000E-08   0.000       0.000       0.000       0.000       0.000       0.000       0.000       0.000    
   2   1.6000E-08  8.0000E-09  1.6000E-08   0.000       0.000      6.4000E-08  6.4000E-08  4.0000E-08   0.000       0.000    
   3    0.000      4.0000E-08  8.0000E-09  8.0000E-09  6.4000E-08  6.4000E-08  4.0000E-08  4.0000E-08   0.000       0.000    
   4   6.4000E-08  4.0000E-08  8.0000E-09  8.0000E-09  8.0000E-09  8.0000E-09  8.0000E-09  8.0000E-09  1.6000E-08   0.000    
   5   6.4000E-08  4.0000E-08  8.0000E-09  8.0000E-09  8.0000E-09  8.0000E-09  8.0000E-09  8.0000E-09  8.0000E-09  8.0000E-09
   6   6.4000E-08  4.0000E-08  4.0000E-08  1.6000E-08  1.6000E-08  8.0000E-09  8.0000E-09  8.0000E-09  8.0000E-09  4.0000E-08
   7   6.4000E-08  4.0000E-08  4.0000E-08  1.6000E-08  1.6000E-08  8.0000E-09  8.0000E-09  1.6000E-08  1.6000E-08   0.000    
   8    0.000      4.0000E-08  4.0000E-08  1.6000E-08  1.6000E-08  8.0000E-09  8.0000E-09  1.6000E-08  4.0000E-08   0.000    
   9    0.000      4.0000E-08  4.0000E-08  1.6000E-08  1.6000E-08  8.0000E-09  8.0000E-09  1.6000E-08  4.0000E-08   0.000    
  10    0.000      4.0000E-08  4.0000E-08  1.6000E-08  1.6000E-08  8.0000E-09  8.0000E-09  1.6000E-08  4.0000E-08  6.4000E-08
  11    0.000      8.0000E-09  8.0000E-09  8.0000E-09  8.0000E-09  8.0000E-09  8.0000E-09  1.6000E-08  4.0000E-08   0.000    
  12   8.0000E-09  8.0000E-09  8.0000E-09  8.0000E-09  8.0000E-09  8.0000E-09  8.0000E-09  8.0000E-09  1.6000E-08   0.000    
  13   8.0000E-09  8.0000E-09  1.6000E-08  1.6000E-08  1.6000E-08  1.6000E-08  1.6000E-08  8.0000E-09  8.0000E-09   0.000    
  14    0.000      1.6000E-08  4.0000E-08  4.0000E-08  4.0000E-08  4.0000E-08  4.0000E-08  1.6000E-08  8.0000E-09   0.000    
  15    0.000       0.000      6.4000E-08  6.4000E-08  6.4000E-08  6.4000E-08   0.000       0.000       0.000       0.000    

                  ET RATE =  5.000000E-08

 USING ET EXTINCTION DEPTH FROM PREVIOUS STRESS PERIOD. CURRENT PERIOD IS:       2

 USING EXTINCTION WATER CONTENT FROM PREVIOUS STRESS PERIOD. CURRENT PERIOD IS:       2
 
 SOLVING FOR HEAD 
                                                   Max.-Head-Change                         Max.-Flux-Residual
  Residual-Control   Outer-Iter.   Inner-Iter.     Column Row Layer    Maximum-Head-Change  Column Row Layer    Maximum-Flux-Residual          L2-NORM 
          0                 1           2             4    8     1      -0.5475491118E-01       5   10    1        -0.3024987818E+01      0.9657817418E+01
          0                 2           2             4    8     1       0.5425413474E-02       5    8    1         0.3024818681E+00      0.9652494582E+00
          0                 3           2             4    8     1      -0.4838526669E-03       5    8    1        -0.2722337947E-01      0.8686085544E-01
          0                 4           1             4    8     1       0.3840492853E-04       5    8    1         0.2180593188E-02      0.6957254041E-02

    ------------------------------------------------
       NWT REQUIRED            4 OUTER ITERATIONS 
       AND A TOTAL OF          7 INNER ITERATIONS.
    ------------------------------------------------

 OUTPUT CONTROL WAS SPECIFIED FOR A NONEXISTENT TIME STEP
 OR OUTPUT CONTROL DATA ARE NOT ENTERED IN ASCENDING ORDER
 OUTPUT CONTROL STRESS PERIOD    1   TIME STEP    5
 MODEL STRESS PERIOD    2   TIME STEP    1
 APPLYING THE SPECIFIED OUTPUT CONTROL TO THE CURRENT TIME STEP

 OUTPUT CONTROL FOR STRESS PERIOD    2   TIME STEP    1
    PRINT BUDGET
    SAVE BUDGET

            WELLS   PERIOD    2   STEP   1
 WELL      1   LAYER   1   ROW     6   COL     4   RATE    -4.00000    
 WELL      2   LAYER   1   ROW     6   COL     5   RATE    -4.00000    
 WELL      3   LAYER   1   ROW     7   COL     4   RATE    -4.00000    
 WELL      4   LAYER   1   ROW     7   COL     5   RATE    -4.00000    
 WELL      5   LAYER   1   ROW     8   COL     4   RATE    -4.00000    
 WELL      6   LAYER   1   ROW     8   COL     5   RATE    -4.00000    
 WELL      7   LAYER   1   ROW     9   COL     4   RATE    -4.00000    
 WELL      8   LAYER   1   ROW     9   COL     5   RATE    -4.00000    
 WELL      9   LAYER   1   ROW    10   COL     4   RATE    -4.00000    
 WELL     10   LAYER   1   ROW    10   COL     5   RATE    -4.00000    

  HEAD DEP BOUNDS   PERIOD    2   STEP     1
 BOUNDARY      1   LAYER   1   ROW    13   COL     1   RATE   -0.285848    
 BOUNDARY      2   LAYER   1   ROW    14   COL     9   RATE    0.299919    



 STREAM LISTING     PERIOD      2   STEP        1

 LAYER ROW COL. STREAM  RCH.  FLOW INTO     FLOW TO   FLOW OUT OF   OVRLND.     DIRECT     STREAM       STREAM     STREAM     STREAM   STREAMBED  STREAMBED
                SEG.NO.  NO.  STRM. RCH.    AQUIFER    STRM. RCH.    RUNOFF     PRECIP       ET          HEAD       DEPTH      WIDTH   CONDCTNC.   GRADIENT

   1    1    1     1     1    2.5000E+01  2.4641E-01   2.5300E+01  5.466E-01  0.000E+00  0.000E+00  1.09423E+03  1.182E+00  1.309E+01  5.891E-02  1.394E+00
   1    2    2     1     2    2.5300E+01  3.8602E-01   2.5765E+01  8.503E-01  0.000E+00  0.000E+00  1.08925E+03  1.188E+00  1.317E+01  9.217E-02  1.396E+00
   1    3    3     1     3    2.5765E+01  3.3348E-01   2.6160E+01  7.289E-01  0.000E+00  0.000E+00  1.08361E+03  1.194E+00  1.325E+01  7.951E-02  1.398E+00
   1    3    4     1     4    2.6160E+01  3.1058E-01   2.6524E+01  6.742E-01  0.000E+00  0.000E+00  1.07861E+03  1.200E+00  1.332E+01  7.395E-02  1.400E+00
   1    4    5     2     1    1.6524E+01  3.0815E-12   1.7039E+01  5.151E-01  0.000E+00  0.000E+00  1.07288E+03  9.507E-01  1.200E+01  7.800E-13  1.317E+00
   1    5    6     2     2    1.7039E+01  2.3797E-12   1.7435E+01  3.962E-01  0.000E+00  0.000E+00  1.06748E+03  9.661E-01  1.200E+01  6.000E-13  1.322E+00
   1    6    6     2     3    1.7435E+01  2.3876E-12   1.7831E+01  3.962E-01  0.000E+00  0.000E+00  1.06277E+03  9.794E-01  1.200E+01  6.000E-13  1.326E+00
   1    7    6     2     4    1.7831E+01  2.3955E-12   1.8227E+01  3.962E-01  0.000E+00  0.000E+00  1.05807E+03  9.925E-01  1.200E+01  6.000E-13  1.331E+00
   1    8    6     2     5    1.8227E+01  2.4033E-12   1.8624E+01  3.962E-01  0.000E+00  0.000E+00  1.05336E+03  1.006E+00  1.200E+01  6.000E-13  1.335E+00
   1    3    5     3     1    1.0000E+01  2.8252E-01   1.1527E+01  1.809E+00  0.000E+00  0.000E+00  1.07555E+03  1.909E+00  9.636E+00  7.227E-02  1.955E+00
   1    3    6     3     2    1.1527E+01  2.4905E-01   1.3087E+01  1.809E+00  0.000E+00  0.000E+00  1.07264E+03  1.727E+00  8.909E+00  6.682E-02  1.864E+00
   1    3    7     3     3    1.3087E+01  1.9718E-01   1.4518E+01  1.628E+00  0.000E+00  0.000E+00  1.06987E+03  1.555E+00  8.218E+00  5.547E-02  1.777E+00
   1    4    8     3     4    1.4518E+01  2.2567E-01   1.6463E+01  2.171E+00  0.000E+00  0.000E+00  1.06682E+03  1.364E+00  7.455E+00  6.709E-02  1.682E+00
   1    5    8     3     5    1.6463E+01  1.5790E-01   1.8114E+01  1.809E+00  0.000E+00  0.000E+00  1.06362E+03  1.164E+00  6.655E+00  4.991E-02  1.582E+00
   1    6    8     3     6    1.8114E+01  5.5980E-02   1.8782E+01  7.236E-01  0.000E+00  0.000E+00  1.06158E+03  1.036E+00  6.145E+00  1.844E-02  1.518E+00
   1    5   10     4     1    1.0000E+01  9.1144E-13   1.0381E+01  3.807E-01  0.000E+00  0.000E+00  1.07837E+03  6.458E-01  1.000E+01  2.500E-13  1.215E+00
   1    5    9     4     2    1.0381E+01  1.8336E-12   1.1142E+01  7.614E-01  0.000E+00  0.000E+00  1.07158E+03  6.673E-01  1.000E+01  5.000E-13  1.222E+00
   1    6    8     4     3    1.1142E+01  1.2919E-12   1.1675E+01  5.330E-01  0.000E+00  0.000E+00  1.06387E+03  6.910E-01  1.000E+01  3.500E-13  1.230E+00
   1    6    8     5     1    3.0457E+01  4.7218E-01   3.0638E+01  6.533E-01  0.000E+00  0.000E+00  1.05899E+03  9.928E-01  2.956E+01  1.183E-01  1.331E+00
   1    7    7     5     2    3.0638E+01  5.9291E-01   3.0862E+01  8.167E-01  0.000E+00  0.000E+00  1.05450E+03  9.951E-01  2.968E+01  1.484E-01  1.332E+00
   1    8    7     5     3    3.0862E+01  4.1679E-01   3.1016E+01  5.717E-01  0.000E+00  0.000E+00  1.05025E+03  9.972E-01  2.979E+01  1.043E-01  1.332E+00
   1    8    6     5     4    3.1016E+01  2.9858E-01   3.1126E+01  4.083E-01  0.000E+00  0.000E+00  1.04725E+03  9.987E-01  2.987E+01  7.467E-02  1.333E+00
   1    9    6     6     1    4.9750E+01  2.9158E-12   5.1045E+01  1.295E+00  0.000E+00  0.000E+00  1.04459E+03  1.860E+00  1.200E+01  6.000E-13  1.620E+00
   1   10    7     6     2    5.1045E+01  2.9329E-12   5.2341E+01  1.295E+00  0.000E+00  0.000E+00  1.04007E+03  1.888E+00  1.200E+01  6.000E-13  1.629E+00
   1   11    7     6     3    5.2341E+01  2.9498E-12   5.3636E+01  1.295E+00  0.000E+00  0.000E+00  1.03555E+03  1.916E+00  1.200E+01  6.000E-13  1.639E+00
   1   12    7     6     4    5.3636E+01  2.9666E-12   5.4932E+01  1.295E+00  0.000E+00  0.000E+00  1.03104E+03  1.944E+00  1.200E+01  6.000E-13  1.648E+00
   1   13    7     6     5    5.4932E+01  6.8344E-11   5.5450E+01  5.182E-01  0.000E+00  0.000E+00  1.02787E+03  1.964E+00  1.200E+01  2.400E-11  9.492E-01
   1   14    9     7     1    1.5000E+02  1.5461E+00   1.4967E+02  1.218E+00  0.000E+00  0.000E+00  1.03987E+03  2.290E+00  5.531E+01  5.594E-01  9.212E-01
   1   13    8     7     2    1.4967E+02  2.5192E+00   1.4849E+02  1.340E+00  0.000E+00  0.000E+00  1.03479E+03  2.286E+00  5.529E+01  6.152E-01  1.365E+00
   1   13    7     7     3    1.4849E+02  2.6121E+00   1.4710E+02  1.218E+00  0.000E+00  0.000E+00  1.02970E+03  2.280E+00  5.526E+01  5.589E-01  1.558E+00
   1   13    6     8     1    2.0255E+02  2.2046E+00   2.0685E+02  6.509E+00  0.000E+00  0.000E+00  1.02504E+03  3.165E+00  4.589E+01  4.677E-01  1.571E+00
   1   13    5     8     2    2.0685E+02  1.3796E+00   2.1198E+02  6.509E+00  0.000E+00  0.000E+00  1.01882E+03  3.192E+00  4.629E+01  4.717E-01  9.749E-01
   1   13    4     8     3    2.1198E+02  3.7292E-01   2.1812E+02  6.509E+00  0.000E+00  0.000E+00  1.01260E+03  3.224E+00  4.675E+01  4.764E-01  2.609E-01
   1   13    3     8     4    2.1812E+02 -6.8845E-01   2.2531E+02  6.509E+00  0.000E+00  0.000E+00  1.00639E+03  3.261E+00  4.729E+01  4.819E+00 -4.762E-02
   1   13    2     8     5    2.2531E+02 -7.5721E-01   2.3258E+02  6.509E+00  0.000E+00  0.000E+00  1.00018E+03  3.301E+00  4.786E+01  4.877E+00 -5.175E-02
   1   13    1     8     6    2.3258E+02 -9.2789E-01   2.3741E+02  3.905E+00  0.000E+00  0.000E+00  9.95208E+02  3.333E+00  4.833E+01  2.955E+00 -1.047E-01



 UBDSV3 SAVING "     NETRECHARGE" ON UNIT 100 AT TIME STEP     1, STRESS PERIOD   2
 UBDSV3 SAVING "    NETDISCHARGE" ON UNIT 101 AT TIME STEP     1, STRESS PERIOD   2
 UBDSV3 SAVING "           GW ET" ON UNIT  61 AT TIME STEP     1, STRESS PERIOD   2
 UBDSV3 SAVING "    UZF RECHARGE" ON UNIT  61 AT TIME STEP     1, STRESS PERIOD   2
 UBDSV3 SAVING " SURFACE LEAKAGE" ON UNIT  61 AT TIME STEP     1, STRESS PERIOD   2
 UBDSV3 SAVING "       HORT+DUNN" ON UNIT  61 AT TIME STEP     1, STRESS PERIOD   2
 UBDSV3 SAVING "  STORAGE CHANGE" ON UNIT  61 AT TIME STEP     1, STRESS PERIOD   2


UNSATURATED ZONE PACKAGE VOLUMETRIC BUDGET FOR  TIME STEP     1 STRESS PERIOD    2
  ------------------------------------------------------------------------------



     CUMULATIVE VOLUMES      L**3       RATES FOR THIS TIME STEP      L**3/T
     ------------------                 ------------------------

           IN:                                      IN:
           ---                                      ---
        INFILTRATION =     7861067.8926          INFILTRATION =           2.9000

          OUT:                                     OUT:
          ----                                     ----
              UZF ET =        1357.7708                UZF ET =           0.0164
        UZF RECHARGE =     7624500.2249          UZF RECHARGE =           0.0399

            IN - OUT =      235209.8969              IN - OUT =           2.8437

          STORAGE:                                 STORAGE:
          --------                                 --------
      STORAGE CHANGE =      235209.9014        STORAGE CHANGE =           2.8437

 PERCENT DISCREPANCY IS DIFFERENCE BETWEEN IN-OUT MINUS CHANGE IN STORAGE
 DIVIDED BY THE AVERAGE OF IN AND OUT TIMES 100

 PERCENT DISCREPANCY =           0.00     PERCENT DISCREPANCY =           0.00






1
  VOLUMETRIC BUDGET FOR ENTIRE MODEL AT END OF TIME STEP    1, STRESS PERIOD   2
  ------------------------------------------------------------------------------

     CUMULATIVE VOLUMES      L**3       RATES FOR THIS TIME STEP      L**3/T
     ------------------                 ------------------------

           IN:                                      IN:
           ---                                      ---
             STORAGE =     2853886.2500               STORAGE =          34.5034
       CONSTANT HEAD =           0.0000         CONSTANT HEAD =           0.0000
               WELLS =           0.0000                 WELLS =           0.0000
     HEAD DEP BOUNDS =      812957.8125       HEAD DEP BOUNDS =           0.2999
      STREAM LEAKAGE =    37501008.0000        STREAM LEAKAGE =          14.8598
        UZF RECHARGE =     7624505.5000          UZF RECHARGE =       3.9900E-02
               GW ET =           0.0000                 GW ET =           0.0000
     SURFACE LEAKAGE =           0.0000       SURFACE LEAKAGE =           0.0000

            TOTAL IN =    48792356.0000              TOTAL IN =          49.7031

          OUT:                                     OUT:
          ----                                     ----
             STORAGE =       65914.5156               STORAGE =           0.7969
       CONSTANT HEAD =           0.0000         CONSTANT HEAD =           0.0000
               WELLS =    29588522.0000                 WELLS =          40.0000
     HEAD DEP BOUNDS =      775289.7500       HEAD DEP BOUNDS =           0.2858
      STREAM LEAKAGE =    14560915.0000        STREAM LEAKAGE =           2.3735
        UZF RECHARGE =           0.0000          UZF RECHARGE =           0.0000
               GW ET =     3801837.5000                 GW ET =           6.2486
     SURFACE LEAKAGE =           0.0000       SURFACE LEAKAGE =           0.0000

           TOTAL OUT =    48792476.0000             TOTAL OUT =          49.7049

            IN - OUT =        -120.0000              IN - OUT =      -1.7509E-03

 PERCENT DISCREPANCY =          -0.00     PERCENT DISCREPANCY =          -0.00






         TIME SUMMARY AT END OF TIME STEP    1 IN STRESS PERIOD    2
                    SECONDS     MINUTES      HOURS       DAYS        YEARS
                    -----------------------------------------------------------
   TIME STEP LENGTH  82713.      1378.6      22.976     0.95733     2.62102E-03
 STRESS PERIOD TIME  82713.      1378.6      22.976     0.95733     2.62102E-03
         TOTAL TIME 2.71071E+06  45179.      752.98      31.374     8.58973E-02
1
 
 SOLVING FOR HEAD 
                                                   Max.-Head-Change                         Max.-Flux-Residual
  Residual-Control   Outer-Iter.   Inner-Iter.     Column Row Layer    Maximum-Head-Change  Column Row Layer    Maximum-Flux-Residual          L2-NORM 
          0                 1           2             4    8     1      -0.5999158570E-01       4    8    1        -0.3014502494E+01      0.9522596467E+01
          0                 2           2             4    8     1       0.5944601367E-02       4    8    1         0.3014490312E+00      0.9518601070E+00
          0                 3           2             4    8     1      -0.5301550964E-03       4    8    1        -0.2713042814E-01      0.8565746386E-01
          0                 4           1             4    8     1       0.4208009527E-04       4    8    1         0.2173147753E-02      0.6860895972E-02

    ------------------------------------------------
       NWT REQUIRED            4 OUTER ITERATIONS 
       AND A TOTAL OF          7 INNER ITERATIONS.
    ------------------------------------------------

 OUTPUT CONTROL WAS SPECIFIED FOR A NONEXISTENT TIME STEP
 OR OUTPUT CONTROL DATA ARE NOT ENTERED IN ASCENDING ORDER
 OUTPUT CONTROL STRESS PERIOD    1   TIME STEP   10
 MODEL STRESS PERIOD    2   TIME STEP    2
 APPLYING THE SPECIFIED OUTPUT CONTROL TO THE CURRENT TIME STEP

 OUTPUT CONTROL FOR STRESS PERIOD    2   TIME STEP    2
    PRINT BUDGET
    SAVE BUDGET

            WELLS   PERIOD    2   STEP   2
 WELL      1   LAYER   1   ROW     6   COL     4   RATE    -4.00000    
 WELL      2   LAYER   1   ROW     6   COL     5   RATE    -4.00000    
 WELL      3   LAYER   1   ROW     7   COL     4   RATE    -4.00000    
 WELL      4   LAYER   1   ROW     7   COL     5   RATE    -4.00000    
 WELL      5   LAYER   1   ROW     8   COL     4   RATE    -4.00000    
 WELL      6   LAYER   1   ROW     8   COL     5   RATE    -4.00000    
 WELL      7   LAYER   1   ROW     9   COL     4   RATE    -4.00000    
 WELL      8   LAYER   1   ROW     9   COL     5   RATE    -4.00000    
 WELL      9   LAYER   1   ROW    10   COL     4   RATE    -4.00000    
 WELL     10   LAYER   1   ROW    10   COL     5   RATE    -4.00000    

  HEAD DEP BOUNDS   PERIOD    2   STEP     2
 BOUNDARY      1   LAYER   1   ROW    13   COL     1   RATE   -0.285675    
 BOUNDARY      2   LAYER   1   ROW    14   COL     9   RATE    0.299935    



 STREAM LISTING     PERIOD      2   STEP        2

 LAYER ROW COL. STREAM  RCH.  FLOW INTO     FLOW TO   FLOW OUT OF   OVRLND.     DIRECT     STREAM       STREAM     STREAM     STREAM   STREAMBED  STREAMBED
                SEG.NO.  NO.  STRM. RCH.    AQUIFER    STRM. RCH.    RUNOFF     PRECIP       ET          HEAD       DEPTH      WIDTH   CONDCTNC.   GRADIENT

   1    1    1     1     1    2.5000E+01  2.4641E-01   2.5300E+01  5.466E-01  0.000E+00  0.000E+00  1.09423E+03  1.182E+00  1.309E+01  5.891E-02  1.394E+00
   1    2    2     1     2    2.5300E+01  3.8602E-01   2.5765E+01  8.503E-01  0.000E+00  0.000E+00  1.08925E+03  1.188E+00  1.317E+01  9.217E-02  1.396E+00
   1    3    3     1     3    2.5765E+01  3.3348E-01   2.6160E+01  7.289E-01  0.000E+00  0.000E+00  1.08361E+03  1.194E+00  1.325E+01  7.951E-02  1.398E+00
   1    3    4     1     4    2.6160E+01  3.1058E-01   2.6524E+01  6.742E-01  0.000E+00  0.000E+00  1.07861E+03  1.200E+00  1.332E+01  7.395E-02  1.400E+00
   1    4    5     2     1    1.6524E+01  3.0815E-16   1.7039E+01  5.151E-01  0.000E+00  0.000E+00  1.07288E+03  9.507E-01  1.200E+01  7.800E-17  1.317E+00
   1    5    6     2     2    1.7039E+01  2.3797E-16   1.7435E+01  3.962E-01  0.000E+00  0.000E+00  1.06748E+03  9.661E-01  1.200E+01  6.000E-17  1.322E+00
   1    6    6     2     3    1.7435E+01  2.3876E-16   1.7831E+01  3.962E-01  0.000E+00  0.000E+00  1.06277E+03  9.794E-01  1.200E+01  6.000E-17  1.326E+00
   1    7    6     2     4    1.7831E+01  2.3955E-16   1.8227E+01  3.962E-01  0.000E+00  0.000E+00  1.05807E+03  9.925E-01  1.200E+01  6.000E-17  1.331E+00
   1    8    6     2     5    1.8227E+01  2.4033E-16   1.8624E+01  3.962E-01  0.000E+00  0.000E+00  1.05336E+03  1.006E+00  1.200E+01  6.000E-17  1.335E+00
   1    3    5     3     1    1.0000E+01  2.8252E-01   1.1527E+01  1.809E+00  0.000E+00  0.000E+00  1.07555E+03  1.909E+00  9.636E+00  7.227E-02  1.955E+00
   1    3    6     3     2    1.1527E+01  2.4905E-01   1.3087E+01  1.809E+00  0.000E+00  0.000E+00  1.07264E+03  1.727E+00  8.909E+00  6.682E-02  1.864E+00
   1    3    7     3     3    1.3087E+01  1.9718E-01   1.4518E+01  1.628E+00  0.000E+00  0.000E+00  1.06987E+03  1.555E+00  8.218E+00  5.547E-02  1.777E+00
   1    4    8     3     4    1.4518E+01  2.2567E-01   1.6463E+01  2.171E+00  0.000E+00  0.000E+00  1.06682E+03  1.364E+00  7.455E+00  6.709E-02  1.682E+00
   1    5    8     3     5    1.6463E+01  1.5790E-01   1.8114E+01  1.809E+00  0.000E+00  0.000E+00  1.06362E+03  1.164E+00  6.655E+00  4.991E-02  1.582E+00
   1    6    8     3     6    1.8114E+01  5.5980E-02   1.8782E+01  7.236E-01  0.000E+00  0.000E+00  1.06158E+03  1.036E+00  6.145E+00  1.844E-02  1.518E+00
   1    5   10     4     1    1.0000E+01  9.1144E-17   1.0381E+01  3.807E-01  0.000E+00  0.000E+00  1.07837E+03  6.458E-01  1.000E+01  2.500E-17  1.215E+00
   1    5    9     4     2    1.0381E+01  1.8336E-16   1.1142E+01  7.614E-01  0.000E+00  0.000E+00  1.07158E+03  6.673E-01  1.000E+01  5.000E-17  1.222E+00
   1    6    8     4     3    1.1142E+01  1.2919E-16   1.1675E+01  5.330E-01  0.000E+00  0.000E+00  1.06387E+03  6.910E-01  1.000E+01  3.500E-17  1.230E+00
   1    6    8     5     1    3.0457E+01  4.7218E-01   3.0638E+01  6.533E-01  0.000E+00  0.000E+00  1.05899E+03  9.928E-01  2.956E+01  1.183E-01  1.331E+00
   1    7    7     5     2    3.0638E+01  5.9291E-01   3.0862E+01  8.167E-01  0.000E+00  0.000E+00  1.05450E+03  9.951E-01  2.968E+01  1.484E-01  1.332E+00
   1    8    7     5     3    3.0862E+01  4.1679E-01   3.1016E+01  5.717E-01  0.000E+00  0.000E+00  1.05025E+03  9.972E-01  2.979E+01  1.043E-01  1.332E+00
   1    8    6     5     4    3.1016E+01  2.9858E-01   3.1126E+01  4.083E-01  0.000E+00  0.000E+00  1.04725E+03  9.987E-01  2.987E+01  7.467E-02  1.333E+00
   1    9    6     6     1    4.9750E+01  2.9158E-16   5.1045E+01  1.295E+00  0.000E+00  0.000E+00  1.04459E+03  1.860E+00  1.200E+01  6.000E-17  1.620E+00
   1   10    7     6     2    5.1045E+01  2.9329E-16   5.2341E+01  1.295E+00  0.000E+00  0.000E+00  1.04007E+03  1.888E+00  1.200E+01  6.000E-17  1.629E+00
   1   11    7     6     3    5.2341E+01  2.9498E-16   5.3636E+01  1.295E+00  0.000E+00  0.000E+00  1.03555E+03  1.916E+00  1.200E+01  6.000E-17  1.639E+00
   1   12    7     6     4    5.3636E+01  2.9666E-16   5.4932E+01  1.295E+00  0.000E+00  0.000E+00  1.03104E+03  1.944E+00  1.200E+01  6.000E-17  1.648E+00
   1   13    7     6     5    5.4932E+01  6.8349E-15   5.5450E+01  5.182E-01  0.000E+00  0.000E+00  1.02787E+03  1.964E+00  1.200E+01  2.400E-15  9.493E-01
   1   14    9     7     1    1.5000E+02  1.5463E+00   1.4967E+02  1.218E+00  0.000E+00  0.000E+00  1.03987E+03  2.290E+00  5.531E+01  5.594E-01  9.214E-01
   1   13    8     7     2    1.4967E+02  2.5194E+00   1.4849E+02  1.340E+00  0.000E+00  0.000E+00  1.03479E+03  2.286E+00  5.529E+01  6.152E-01  1.365E+00
   1   13    7     7     3    1.4849E+02  2.6122E+00   1.4710E+02  1.218E+00  0.000E+00  0.000E+00  1.02970E+03  2.280E+00  5.526E+01  5.589E-01  1.558E+00
   1   13    6     8     1    2.0255E+02  2.2034E+00   2.0685E+02  6.509E+00  0.000E+00  0.000E+00  1.02504E+03  3.165E+00  4.589E+01  4.677E-01  1.570E+00
   1   13    5     8     2    2.0685E+02  1.3863E+00   2.1197E+02  6.509E+00  0.000E+00  0.000E+00  1.01882E+03  3.192E+00  4.629E+01  4.717E-01  9.797E-01
   1   13    4     8     3    2.1197E+02  3.8009E-01   2.1810E+02  6.509E+00  0.000E+00  0.000E+00  1.01260E+03  3.224E+00  4.675E+01  4.764E-01  2.659E-01
   1   13    3     8     4    2.1810E+02 -6.9510E-01   2.2531E+02  6.509E+00  0.000E+00  0.000E+00  1.00639E+03  3.261E+00  4.729E+01  4.819E+00 -4.808E-02
   1   13    2     8     5    2.2531E+02 -7.7271E-01   2.3259E+02  6.509E+00  0.000E+00  0.000E+00  1.00018E+03  3.301E+00  4.786E+01  4.877E+00 -5.281E-02
   1   13    1     8     6    2.3259E+02 -9.1448E-01   2.3741E+02  3.905E+00  0.000E+00  0.000E+00  9.95208E+02  3.333E+00  4.833E+01  2.955E+00 -1.031E-01



 UBDSV3 SAVING "     NETRECHARGE" ON UNIT 100 AT TIME STEP     2, STRESS PERIOD   2
 UBDSV3 SAVING "    NETDISCHARGE" ON UNIT 101 AT TIME STEP     2, STRESS PERIOD   2
 UBDSV3 SAVING "           GW ET" ON UNIT  61 AT TIME STEP     2, STRESS PERIOD   2
 UBDSV3 SAVING "    UZF RECHARGE" ON UNIT  61 AT TIME STEP     2, STRESS PERIOD   2
 UBDSV3 SAVING " SURFACE LEAKAGE" ON UNIT  61 AT TIME STEP     2, STRESS PERIOD   2
 UBDSV3 SAVING "       HORT+DUNN" ON UNIT  61 AT TIME STEP     2, STRESS PERIOD   2
 UBDSV3 SAVING "  STORAGE CHANGE" ON UNIT  61 AT TIME STEP     2, STRESS PERIOD   2


UNSATURATED ZONE PACKAGE VOLUMETRIC BUDGET FOR  TIME STEP     2 STRESS PERIOD    2
  ------------------------------------------------------------------------------



     CUMULATIVE VOLUMES      L**3       RATES FOR THIS TIME STEP      L**3/T
     ------------------                 ------------------------

           IN:                                      IN:
           ---                                      ---
        INFILTRATION =     8124922.6084          INFILTRATION =           2.9000

          OUT:                                     OUT:
          ----                                     ----
              UZF ET =        4477.0054                UZF ET =           0.0343
        UZF RECHARGE =     7627724.4727          UZF RECHARGE =           0.0354

            IN - OUT =      492721.1303              IN - OUT =           2.8303

          STORAGE:                                 STORAGE:
          --------                                 --------
      STORAGE CHANGE =      492721.1217        STORAGE CHANGE =           2.8303

 PERCENT DISCREPANCY IS DIFFERENCE BETWEEN IN-OUT MINUS CHANGE IN STORAGE
 DIVIDED BY THE AVERAGE OF IN AND OUT TIMES 100

 PERCENT DISCREPANCY =           0.00     PERCENT DISCREPANCY =           0.00






1
  VOLUMETRIC BUDGET FOR ENTIRE MODEL AT END OF TIME STEP    2, STRESS PERIOD   2
  ------------------------------------------------------------------------------

     CUMULATIVE VOLUMES      L**3       RATES FOR THIS TIME STEP      L**3/T
     ------------------                 ------------------------

           IN:                                      IN:
           ---                                      ---
             STORAGE =     5984902.0000               STORAGE =          34.4127
       CONSTANT HEAD =           0.0000         CONSTANT HEAD =           0.0000
               WELLS =           0.0000                 WELLS =           0.0000
     HEAD DEP BOUNDS =      840247.1875       HEAD DEP BOUNDS =           0.2999
      STREAM LEAKAGE =    38854220.0000        STREAM LEAKAGE =          14.8730
        UZF RECHARGE =     7627729.5000          UZF RECHARGE =       3.5437E-02
               GW ET =           0.0000                 GW ET =           0.0000
     SURFACE LEAKAGE =           0.0000       SURFACE LEAKAGE =           0.0000

            TOTAL IN =    53307096.0000              TOTAL IN =          49.6211

          OUT:                                     OUT:
          ----                                     ----
             STORAGE =      130317.2188               STORAGE =           0.7078
       CONSTANT HEAD =           0.0000         CONSTANT HEAD =           0.0000
               WELLS =    33227898.0000                 WELLS =          40.0000
     HEAD DEP BOUNDS =      801281.7500       HEAD DEP BOUNDS =           0.2857
      STREAM LEAKAGE =    14777667.0000        STREAM LEAKAGE =           2.3823
        UZF RECHARGE =           0.0000          UZF RECHARGE =           0.0000
               GW ET =     4370216.5000                 GW ET =           6.2470
     SURFACE LEAKAGE =           0.0000       SURFACE LEAKAGE =           0.0000

           TOTAL OUT =    53307380.0000             TOTAL OUT =          49.6228

            IN - OUT =        -284.0000              IN - OUT =      -1.7433E-03

 PERCENT DISCREPANCY =          -0.00     PERCENT DISCREPANCY =          -0.00






         TIME SUMMARY AT END OF TIME STEP    2 IN STRESS PERIOD    2
                    SECONDS     MINUTES      HOURS       DAYS        YEARS
                    -----------------------------------------------------------
   TIME STEP LENGTH  90984.      1516.4      25.273      1.0531     2.88312E-03
 STRESS PERIOD TIME 1.73697E+05  2895.0      48.249      2.0104     5.50414E-03
         TOTAL TIME 2.80170E+06  46695.      778.25      32.427     8.87804E-02
1
 
 SOLVING FOR HEAD 
                                                   Max.-Head-Change                         Max.-Flux-Residual
  Residual-Control   Outer-Iter.   Inner-Iter.     Column Row Layer    Maximum-Head-Change  Column Row Layer    Maximum-Flux-Residual          L2-NORM 
          0                 1           2             4    8     1      -0.6569096176E-01       4    8    1        -0.3002539385E+01      0.9381422571E+01
          0                 2           2             4    8     1       0.6509351333E-02       4    8    1         0.3002524615E+00      0.9378065943E+00
          0                 3           2             4    8     1      -0.5805210250E-03       4    8    1        -0.2702273939E-01      0.8439399585E-01
          0                 4           1             4    8     1       0.4607779862E-04       4    8    1         0.2164521862E-02      0.6759740468E-02

    ------------------------------------------------
       NWT REQUIRED            4 OUTER ITERATIONS 
       AND A TOTAL OF          7 INNER ITERATIONS.
    ------------------------------------------------

 OUTPUT CONTROL WAS SPECIFIED FOR A NONEXISTENT TIME STEP
 OR OUTPUT CONTROL DATA ARE NOT ENTERED IN ASCENDING ORDER
 OUTPUT CONTROL STRESS PERIOD    1   TIME STEP   15
 MODEL STRESS PERIOD    2   TIME STEP    3
 APPLYING THE SPECIFIED OUTPUT CONTROL TO THE CURRENT TIME STEP

 OUTPUT CONTROL FOR STRESS PERIOD    2   TIME STEP    3
    PRINT BUDGET
    PRINT HEAD FOR ALL LAYERS
    SAVE HEAD FOR ALL LAYERS
    SAVE BUDGET

            WELLS   PERIOD    2   STEP   3
 WELL      1   LAYER   1   ROW     6   COL     4   RATE    -4.00000    
 WELL      2   LAYER   1   ROW     6   COL     5   RATE    -4.00000    
 WELL      3   LAYER   1   ROW     7   COL     4   RATE    -4.00000    
 WELL      4   LAYER   1   ROW     7   COL     5   RATE    -4.00000    
 WELL      5   LAYER   1   ROW     8   COL     4   RATE    -4.00000    
 WELL      6   LAYER   1   ROW     8   COL     5   RATE    -4.00000    
 WELL      7   LAYER   1   ROW     9   COL     4   RATE    -4.00000    
 WELL      8   LAYER   1   ROW     9   COL     5   RATE    -4.00000    
 WELL      9   LAYER   1   ROW    10   COL     4   RATE    -4.00000    
 WELL     10   LAYER   1   ROW    10   COL     5   RATE    -4.00000    

  HEAD DEP BOUNDS   PERIOD    2   STEP     3
 BOUNDARY      1   LAYER   1   ROW    13   COL     1   RATE   -0.285500    
 BOUNDARY      2   LAYER   1   ROW    14   COL     9   RATE    0.299952    



 STREAM LISTING     PERIOD      2   STEP        3

 LAYER ROW COL. STREAM  RCH.  FLOW INTO     FLOW TO   FLOW OUT OF   OVRLND.     DIRECT     STREAM       STREAM     STREAM     STREAM   STREAMBED  STREAMBED
                SEG.NO.  NO.  STRM. RCH.    AQUIFER    STRM. RCH.    RUNOFF     PRECIP       ET          HEAD       DEPTH      WIDTH   CONDCTNC.   GRADIENT

   1    1    1     1     1    2.5000E+01  2.4641E-01   2.5300E+01  5.466E-01  0.000E+00  0.000E+00  1.09423E+03  1.182E+00  1.309E+01  5.891E-02  1.394E+00
   1    2    2     1     2    2.5300E+01  3.8602E-01   2.5765E+01  8.503E-01  0.000E+00  0.000E+00  1.08925E+03  1.188E+00  1.317E+01  9.217E-02  1.396E+00
   1    3    3     1     3    2.5765E+01  3.3348E-01   2.6160E+01  7.289E-01  0.000E+00  0.000E+00  1.08361E+03  1.194E+00  1.325E+01  7.951E-02  1.398E+00
   1    3    4     1     4    2.6160E+01  3.1058E-01   2.6524E+01  6.742E-01  0.000E+00  0.000E+00  1.07861E+03  1.200E+00  1.332E+01  7.395E-02  1.400E+00
   1    4    5     2     1    1.6524E+01  3.0815E-20   1.7039E+01  5.151E-01  0.000E+00  0.000E+00  1.07288E+03  9.507E-01  1.200E+01  7.800E-21  1.317E+00
   1    5    6     2     2    1.7039E+01  2.3797E-20   1.7435E+01  3.962E-01  0.000E+00  0.000E+00  1.06748E+03  9.661E-01  1.200E+01  6.000E-21  1.322E+00
   1    6    6     2     3    1.7435E+01  2.3876E-20   1.7831E+01  3.962E-01  0.000E+00  0.000E+00  1.06277E+03  9.794E-01  1.200E+01  6.000E-21  1.326E+00
   1    7    6     2     4    1.7831E+01  2.3955E-20   1.8227E+01  3.962E-01  0.000E+00  0.000E+00  1.05807E+03  9.925E-01  1.200E+01  6.000E-21  1.331E+00
   1    8    6     2     5    1.8227E+01  2.4033E-20   1.8624E+01  3.962E-01  0.000E+00  0.000E+00  1.05336E+03  1.006E+00  1.200E+01  6.000E-21  1.335E+00
   1    3    5     3     1    1.0000E+01  2.8252E-01   1.1527E+01  1.809E+00  0.000E+00  0.000E+00  1.07555E+03  1.909E+00  9.636E+00  7.227E-02  1.955E+00
   1    3    6     3     2    1.1527E+01  2.4905E-01   1.3087E+01  1.809E+00  0.000E+00  0.000E+00  1.07264E+03  1.727E+00  8.909E+00  6.682E-02  1.864E+00
   1    3    7     3     3    1.3087E+01  1.9718E-01   1.4518E+01  1.628E+00  0.000E+00  0.000E+00  1.06987E+03  1.555E+00  8.218E+00  5.547E-02  1.777E+00
   1    4    8     3     4    1.4518E+01  2.2567E-01   1.6463E+01  2.171E+00  0.000E+00  0.000E+00  1.06682E+03  1.364E+00  7.455E+00  6.709E-02  1.682E+00
   1    5    8     3     5    1.6463E+01  1.5790E-01   1.8114E+01  1.809E+00  0.000E+00  0.000E+00  1.06362E+03  1.164E+00  6.655E+00  4.991E-02  1.582E+00
   1    6    8     3     6    1.8114E+01  5.5980E-02   1.8782E+01  7.236E-01  0.000E+00  0.000E+00  1.06158E+03  1.036E+00  6.145E+00  1.844E-02  1.518E+00
   1    5   10     4     1    1.0000E+01  9.1145E-21   1.0381E+01  3.807E-01  0.000E+00  0.000E+00  1.07837E+03  6.458E-01  1.000E+01  2.500E-21  1.215E+00
   1    5    9     4     2    1.0381E+01  1.8336E-20   1.1142E+01  7.614E-01  0.000E+00  0.000E+00  1.07158E+03  6.673E-01  1.000E+01  5.000E-21  1.222E+00
   1    6    8     4     3    1.1142E+01  1.2919E-20   1.1675E+01  5.330E-01  0.000E+00  0.000E+00  1.06387E+03  6.910E-01  1.000E+01  3.500E-21  1.230E+00
   1    6    8     5     1    3.0457E+01  4.7218E-01   3.0638E+01  6.533E-01  0.000E+00  0.000E+00  1.05899E+03  9.928E-01  2.956E+01  1.183E-01  1.331E+00
   1    7    7     5     2    3.0638E+01  5.9291E-01   3.0862E+01  8.167E-01  0.000E+00  0.000E+00  1.05450E+03  9.951E-01  2.968E+01  1.484E-01  1.332E+00
   1    8    7     5     3    3.0862E+01  4.1679E-01   3.1016E+01  5.717E-01  0.000E+00  0.000E+00  1.05025E+03  9.972E-01  2.979E+01  1.043E-01  1.332E+00
   1    8    6     5     4    3.1016E+01  2.9858E-01   3.1126E+01  4.083E-01  0.000E+00  0.000E+00  1.04725E+03  9.987E-01  2.987E+01  7.467E-02  1.333E+00
   1    9    6     6     1    4.9750E+01  2.9158E-20   5.1045E+01  1.295E+00  0.000E+00  0.000E+00  1.04459E+03  1.860E+00  1.200E+01  6.000E-21  1.620E+00
   1   10    7     6     2    5.1045E+01  2.9329E-20   5.2341E+01  1.295E+00  0.000E+00  0.000E+00  1.04007E+03  1.888E+00  1.200E+01  6.000E-21  1.629E+00
   1   11    7     6     3    5.2341E+01  2.9498E-20   5.3636E+01  1.295E+00  0.000E+00  0.000E+00  1.03555E+03  1.916E+00  1.200E+01  6.000E-21  1.639E+00
   1   12    7     6     4    5.3636E+01  2.9666E-20   5.4932E+01  1.295E+00  0.000E+00  0.000E+00  1.03104E+03  1.944E+00  1.200E+01  6.000E-21  1.648E+00
   1   13    7     6     5    5.4932E+01  6.8353E-19   5.5450E+01  5.182E-01  0.000E+00  0.000E+00  1.02787E+03  1.964E+00  1.200E+01  2.400E-19  9.493E-01
   1   14    9     7     1    1.5000E+02  1.5466E+00   1.4967E+02  1.218E+00  0.000E+00  0.000E+00  1.03987E+03  2.290E+00  5.531E+01  5.594E-01  9.215E-01
   1   13    8     7     2    1.4967E+02  2.5196E+00   1.4849E+02  1.340E+00  0.000E+00  0.000E+00  1.03479E+03  2.286E+00  5.529E+01  6.152E-01  1.365E+00
   1   13    7     7     3    1.4849E+02  2.6123E+00   1.4710E+02  1.218E+00  0.000E+00  0.000E+00  1.02970E+03  2.280E+00  5.526E+01  5.589E-01  1.558E+00
   1   13    6     8     1    2.0255E+02  2.2022E+00   2.0685E+02  6.509E+00  0.000E+00  0.000E+00  1.02504E+03  3.165E+00  4.589E+01  4.677E-01  1.570E+00
   1   13    5     8     2    2.0685E+02  1.3935E+00   2.1197E+02  6.509E+00  0.000E+00  0.000E+00  1.01882E+03  3.192E+00  4.629E+01  4.717E-01  9.847E-01
   1   13    4     8     3    2.1197E+02  3.8768E-01   2.1809E+02  6.509E+00  0.000E+00  0.000E+00  1.01260E+03  3.224E+00  4.675E+01  4.764E-01  2.713E-01
   1   13    3     8     4    2.1809E+02 -7.0077E-01   2.2530E+02  6.509E+00  0.000E+00  0.000E+00  1.00639E+03  3.261E+00  4.729E+01  4.819E+00 -4.847E-02
   1   13    2     8     5    2.2530E+02 -7.8783E-01   2.3260E+02  6.509E+00  0.000E+00  0.000E+00  1.00018E+03  3.301E+00  4.786E+01  4.877E+00 -5.384E-02
   1   13    1     8     6    2.3260E+02 -9.0080E-01   2.3740E+02  3.905E+00  0.000E+00  0.000E+00  9.95208E+02  3.333E+00  4.833E+01  2.955E+00 -1.016E-01



 UBDSV3 SAVING "     NETRECHARGE" ON UNIT 100 AT TIME STEP     3, STRESS PERIOD   2
 UBDSV3 SAVING "    NETDISCHARGE" ON UNIT 101 AT TIME STEP     3, STRESS PERIOD   2
 UBDSV3 SAVING "           GW ET" ON UNIT  61 AT TIME STEP     3, STRESS PERIOD   2
 UBDSV3 SAVING "    UZF RECHARGE" ON UNIT  61 AT TIME STEP     3, STRESS PERIOD   2
 UBDSV3 SAVING " SURFACE LEAKAGE" ON UNIT  61 AT TIME STEP     3, STRESS PERIOD   2
 UBDSV3 SAVING "       HORT+DUNN" ON UNIT  61 AT TIME STEP     3, STRESS PERIOD   2
 UBDSV3 SAVING "  STORAGE CHANGE" ON UNIT  61 AT TIME STEP     3, STRESS PERIOD   2


UNSATURATED ZONE PACKAGE VOLUMETRIC BUDGET FOR  TIME STEP     3 STRESS PERIOD    2
  ------------------------------------------------------------------------------



     CUMULATIVE VOLUMES      L**3       RATES FOR THIS TIME STEP      L**3/T
     ------------------                 ------------------------

           IN:                                      IN:
           ---                                      ---
        INFILTRATION =     8415162.7930          INFILTRATION =           2.9000

          OUT:                                     OUT:
          ----                                     ----
              UZF ET =        9852.5700                UZF ET =           0.0537
        UZF RECHARGE =     7630916.2909          UZF RECHARGE =           0.0319

            IN - OUT =      774393.9320              IN - OUT =           2.8144

          STORAGE:                                 STORAGE:
          --------                                 --------
      STORAGE CHANGE =      774393.9098        STORAGE CHANGE =           2.8144

 PERCENT DISCREPANCY IS DIFFERENCE BETWEEN IN-OUT MINUS CHANGE IN STORAGE
 DIVIDED BY THE AVERAGE OF IN AND OUT TIMES 100

 PERCENT DISCREPANCY =           0.00     PERCENT DISCREPANCY =           0.00






1
              HEAD IN LAYER   1 AT END OF TIME STEP     3 IN STRESS PERIOD    2
  -----------------------------------------------------------------------------

           1       2       3       4       5       6       7       8       9      10
 ...................................................................................
   1  1029.30 1025.74 6999.00 6999.00 6999.00 6999.00 6999.00 6999.00 6999.00 6999.00
   2  1026.15 1021.20 1019.19 6999.00 6999.00 1017.68 1017.95 1018.09 6999.00 6999.00
   3  6999.00 1018.23 1017.05 1016.13 1016.05 1016.50 1017.15 1017.31 6999.00 6999.00
   4  1016.22 1016.28 1015.53 1014.72 1014.41 1014.51 1015.25 1016.58 1016.28 6999.00
   5  1015.43 1014.73 1013.98 1013.42 1013.48 1013.87 1014.35 1014.96 1015.26 1015.55
   6  1014.65 1013.68 1012.73 1011.86 1012.15 1013.28 1014.08 1014.78 1015.22 1015.93
   7  1014.12 1012.89 1011.93 1011.10 1011.57 1012.96 1014.01 1014.47 1015.46 6999.00
   8  6999.00 1012.25 1011.53 1010.81 1011.40 1012.92 1013.95 1014.77 1016.39 6999.00
   9  6999.00 1011.74 1011.40 1010.95 1011.63 1013.16 1014.23 1015.62 1017.97 6999.00
  10  6999.00 1011.17 1011.39 1011.46 1012.29 1013.98 1015.15 1017.01 1019.67 1020.56
  11  6999.00 1009.80 1010.93 1012.38 1013.70 1015.45 1017.09 1019.73 1022.91 6999.00
  12  1000.97 1005.83 1009.38 1012.16 1014.70 1017.45 1020.00 1024.68 1028.55 6999.00
  13   995.51 1000.34 1006.53 1011.79 1015.86 1020.33 1025.02 1030.69 1033.75 6999.00
  14  6999.00 1005.69 1008.43 1012.50 1016.52 1020.76 1025.97 1032.20 1037.11 6999.00
  15  6999.00 6999.00 1011.90 1014.26 1017.28 1020.01 6999.00 6999.00 6999.00 6999.00

 HEAD WILL BE SAVED ON UNIT   58 AT END OF TIME STEP    3, STRESS PERIOD    2
1
  VOLUMETRIC BUDGET FOR ENTIRE MODEL AT END OF TIME STEP    3, STRESS PERIOD   2
  ------------------------------------------------------------------------------

     CUMULATIVE VOLUMES      L**3       RATES FOR THIS TIME STEP      L**3/T
     ------------------                 ------------------------

           IN:                                      IN:
           ---                                      ---
             STORAGE =     9421382.0000               STORAGE =          34.3364
       CONSTANT HEAD =           0.0000         CONSTANT HEAD =           0.0000
               WELLS =           0.0000                 WELLS =           0.0000
     HEAD DEP BOUNDS =      870267.2500       HEAD DEP BOUNDS =           0.3000
      STREAM LEAKAGE =    40344160.0000        STREAM LEAKAGE =          14.8871
        UZF RECHARGE =     7630921.5000          UZF RECHARGE =       3.1892E-02
               GW ET =           0.0000                 GW ET =           0.0000
     SURFACE LEAKAGE =           0.0000       SURFACE LEAKAGE =           0.0000

            TOTAL IN =    58266728.0000              TOTAL IN =          49.5553

          OUT:                                     OUT:
          ----                                     ----
             STORAGE =      194053.2500               STORAGE =           0.6368
       CONSTANT HEAD =           0.0000         CONSTANT HEAD =           0.0000
               WELLS =    37231212.0000                 WELLS =          40.0000
     HEAD DEP BOUNDS =      829855.3750       HEAD DEP BOUNDS =           0.2855
      STREAM LEAKAGE =    15016804.0000        STREAM LEAKAGE =           2.3894
        UZF RECHARGE =           0.0000          UZF RECHARGE =           0.0000
               GW ET =     4995262.5000                 GW ET =           6.2453
     SURFACE LEAKAGE =           0.0000       SURFACE LEAKAGE =           0.0000

           TOTAL OUT =    58267188.0000             TOTAL OUT =          49.5570

            IN - OUT =        -460.0000              IN - OUT =      -1.7395E-03

 PERCENT DISCREPANCY =          -0.00     PERCENT DISCREPANCY =          -0.00






         TIME SUMMARY AT END OF TIME STEP    3 IN STRESS PERIOD    2
                    SECONDS     MINUTES      HOURS       DAYS        YEARS
                    -----------------------------------------------------------
   TIME STEP LENGTH 1.00083E+05  1668.0      27.801      1.1584     3.17143E-03
 STRESS PERIOD TIME 2.73780E+05  4563.0      76.050      3.1688     8.67557E-03
         TOTAL TIME 2.90178E+06  48363.      806.05      33.585     9.19519E-02
1
 
 SOLVING FOR HEAD 
                                                   Max.-Head-Change                         Max.-Flux-Residual
  Residual-Control   Outer-Iter.   Inner-Iter.     Column Row Layer    Maximum-Head-Change  Column Row Layer    Maximum-Flux-Residual          L2-NORM 
          0                 1           2             4    8     1      -0.7188404774E-01       4    8    1        -0.2988893962E+01      0.9234592023E+01
          0                 2           2             4    8     1       0.7123020930E-02       4    8    1         0.2988875891E+00      0.9231813593E+00
          0                 3           2             4    8     1      -0.6352497583E-03       4    8    1        -0.2689990410E-01      0.8307898091E-01
          0                 4           1             4    8     1       0.5042179114E-04       4    8    1         0.2154682712E-02      0.6654394065E-02

    ------------------------------------------------
       NWT REQUIRED            4 OUTER ITERATIONS 
       AND A TOTAL OF          7 INNER ITERATIONS.
    ------------------------------------------------

 OUTPUT CONTROL WAS SPECIFIED FOR A NONEXISTENT TIME STEP
 OR OUTPUT CONTROL DATA ARE NOT ENTERED IN ASCENDING ORDER
 OUTPUT CONTROL STRESS PERIOD    2   TIME STEP    1
 MODEL STRESS PERIOD    2   TIME STEP    4
 APPLYING THE SPECIFIED OUTPUT CONTROL TO THE CURRENT TIME STEP

 OUTPUT CONTROL FOR STRESS PERIOD    2   TIME STEP    4
    PRINT BUDGET
    SAVE BUDGET

            WELLS   PERIOD    2   STEP   4
 WELL      1   LAYER   1   ROW     6   COL     4   RATE    -4.00000    
 WELL      2   LAYER   1   ROW     6   COL     5   RATE    -4.00000    
 WELL      3   LAYER   1   ROW     7   COL     4   RATE    -4.00000    
 WELL      4   LAYER   1   ROW     7   COL     5   RATE    -4.00000    
 WELL      5   LAYER   1   ROW     8   COL     4   RATE    -4.00000    
 WELL      6   LAYER   1   ROW     8   COL     5   RATE    -4.00000    
 WELL      7   LAYER   1   ROW     9   COL     4   RATE    -4.00000    
 WELL      8   LAYER   1   ROW     9   COL     5   RATE    -4.00000    
 WELL      9   LAYER   1   ROW    10   COL     4   RATE    -4.00000    
 WELL     10   LAYER   1   ROW    10   COL     5   RATE    -4.00000    

  HEAD DEP BOUNDS   PERIOD    2   STEP     4
 BOUNDARY      1   LAYER   1   ROW    13   COL     1   RATE   -0.285321    
 BOUNDARY      2   LAYER   1   ROW    14   COL     9   RATE    0.299971    



 STREAM LISTING     PERIOD      2   STEP        4

 LAYER ROW COL. STREAM  RCH.  FLOW INTO     FLOW TO   FLOW OUT OF   OVRLND.     DIRECT     STREAM       STREAM     STREAM     STREAM   STREAMBED  STREAMBED
                SEG.NO.  NO.  STRM. RCH.    AQUIFER    STRM. RCH.    RUNOFF     PRECIP       ET          HEAD       DEPTH      WIDTH   CONDCTNC.   GRADIENT

   1    1    1     1     1    2.5000E+01  2.4641E-01   2.5300E+01  5.466E-01  0.000E+00  0.000E+00  1.09423E+03  1.182E+00  1.309E+01  5.891E-02  1.394E+00
   1    2    2     1     2    2.5300E+01  3.8602E-01   2.5765E+01  8.503E-01  0.000E+00  0.000E+00  1.08925E+03  1.188E+00  1.317E+01  9.217E-02  1.396E+00
   1    3    3     1     3    2.5765E+01  3.3348E-01   2.6160E+01  7.289E-01  0.000E+00  0.000E+00  1.08361E+03  1.194E+00  1.325E+01  7.951E-02  1.398E+00
   1    3    4     1     4    2.6160E+01  3.1058E-01   2.6524E+01  6.742E-01  0.000E+00  0.000E+00  1.07861E+03  1.200E+00  1.332E+01  7.395E-02  1.400E+00
   1    4    5     2     1    1.6524E+01  3.0815E-24   1.7039E+01  5.151E-01  0.000E+00  0.000E+00  1.07288E+03  9.507E-01  1.200E+01  7.800E-25  1.317E+00
   1    5    6     2     2    1.7039E+01  2.3797E-24   1.7435E+01  3.962E-01  0.000E+00  0.000E+00  1.06748E+03  9.661E-01  1.200E+01  6.000E-25  1.322E+00
   1    6    6     2     3    1.7435E+01  2.3876E-24   1.7831E+01  3.962E-01  0.000E+00  0.000E+00  1.06277E+03  9.794E-01  1.200E+01  6.000E-25  1.326E+00
   1    7    6     2     4    1.7831E+01  2.3955E-24   1.8227E+01  3.962E-01  0.000E+00  0.000E+00  1.05807E+03  9.925E-01  1.200E+01  6.000E-25  1.331E+00
   1    8    6     2     5    1.8227E+01  2.4033E-24   1.8624E+01  3.962E-01  0.000E+00  0.000E+00  1.05336E+03  1.006E+00  1.200E+01  6.000E-25  1.335E+00
   1    3    5     3     1    1.0000E+01  2.8252E-01   1.1527E+01  1.809E+00  0.000E+00  0.000E+00  1.07555E+03  1.909E+00  9.636E+00  7.227E-02  1.955E+00
   1    3    6     3     2    1.1527E+01  2.4905E-01   1.3087E+01  1.809E+00  0.000E+00  0.000E+00  1.07264E+03  1.727E+00  8.909E+00  6.682E-02  1.864E+00
   1    3    7     3     3    1.3087E+01  1.9718E-01   1.4518E+01  1.628E+00  0.000E+00  0.000E+00  1.06987E+03  1.555E+00  8.218E+00  5.547E-02  1.777E+00
   1    4    8     3     4    1.4518E+01  2.2567E-01   1.6463E+01  2.171E+00  0.000E+00  0.000E+00  1.06682E+03  1.364E+00  7.455E+00  6.709E-02  1.682E+00
   1    5    8     3     5    1.6463E+01  1.5790E-01   1.8114E+01  1.809E+00  0.000E+00  0.000E+00  1.06362E+03  1.164E+00  6.655E+00  4.991E-02  1.582E+00
   1    6    8     3     6    1.8114E+01  5.5980E-02   1.8782E+01  7.236E-01  0.000E+00  0.000E+00  1.06158E+03  1.036E+00  6.145E+00  1.844E-02  1.518E+00
   1    5   10     4     1    1.0000E+01  9.1145E-25   1.0381E+01  3.807E-01  0.000E+00  0.000E+00  1.07837E+03  6.458E-01  1.000E+01  2.500E-25  1.215E+00
   1    5    9     4     2    1.0381E+01  1.8336E-24   1.1142E+01  7.614E-01  0.000E+00  0.000E+00  1.07158E+03  6.673E-01  1.000E+01  5.000E-25  1.222E+00
   1    6    8     4     3    1.1142E+01  1.2919E-24   1.1675E+01  5.330E-01  0.000E+00  0.000E+00  1.06387E+03  6.910E-01  1.000E+01  3.500E-25  1.230E+00
   1    6    8     5     1    3.0457E+01  4.7218E-01   3.0638E+01  6.533E-01  0.000E+00  0.000E+00  1.05899E+03  9.928E-01  2.956E+01  1.183E-01  1.331E+00
   1    7    7     5     2    3.0638E+01  5.9291E-01   3.0862E+01  8.167E-01  0.000E+00  0.000E+00  1.05450E+03  9.951E-01  2.968E+01  1.484E-01  1.332E+00
   1    8    7     5     3    3.0862E+01  4.1679E-01   3.1016E+01  5.717E-01  0.000E+00  0.000E+00  1.05025E+03  9.972E-01  2.979E+01  1.043E-01  1.332E+00
   1    8    6     5     4    3.1016E+01  2.9858E-01   3.1126E+01  4.083E-01  0.000E+00  0.000E+00  1.04725E+03  9.987E-01  2.987E+01  7.467E-02  1.333E+00
   1    9    6     6     1    4.9750E+01  2.9158E-24   5.1045E+01  1.295E+00  0.000E+00  0.000E+00  1.04459E+03  1.860E+00  1.200E+01  6.000E-25  1.620E+00
   1   10    7     6     2    5.1045E+01  2.9329E-24   5.2341E+01  1.295E+00  0.000E+00  0.000E+00  1.04007E+03  1.888E+00  1.200E+01  6.000E-25  1.629E+00
   1   11    7     6     3    5.2341E+01  2.9498E-24   5.3636E+01  1.295E+00  0.000E+00  0.000E+00  1.03555E+03  1.916E+00  1.200E+01  6.000E-25  1.639E+00
   1   12    7     6     4    5.3636E+01  2.9666E-24   5.4932E+01  1.295E+00  0.000E+00  0.000E+00  1.03104E+03  1.944E+00  1.200E+01  6.000E-25  1.648E+00
   1   13    7     6     5    5.4932E+01  6.8357E-23   5.5450E+01  5.182E-01  0.000E+00  0.000E+00  1.02787E+03  1.964E+00  1.200E+01  2.400E-23  9.494E-01
   1   14    9     7     1    1.5000E+02  1.5468E+00   1.4967E+02  1.218E+00  0.000E+00  0.000E+00  1.03987E+03  2.290E+00  5.531E+01  5.594E-01  9.217E-01
   1   13    8     7     2    1.4967E+02  2.5198E+00   1.4849E+02  1.340E+00  0.000E+00  0.000E+00  1.03479E+03  2.286E+00  5.529E+01  6.152E-01  1.365E+00
   1   13    7     7     3    1.4849E+02  2.6124E+00   1.4710E+02  1.218E+00  0.000E+00  0.000E+00  1.02970E+03  2.280E+00  5.526E+01  5.589E-01  1.558E+00
   1   13    6     8     1    2.0255E+02  2.2010E+00   2.0685E+02  6.509E+00  0.000E+00  0.000E+00  1.02504E+03  3.165E+00  4.589E+01  4.677E-01  1.569E+00
   1   13    5     8     2    2.0685E+02  1.4010E+00   2.1196E+02  6.509E+00  0.000E+00  0.000E+00  1.01882E+03  3.192E+00  4.629E+01  4.717E-01  9.901E-01
   1   13    4     8     3    2.1196E+02  3.9567E-01   2.1807E+02  6.509E+00  0.000E+00  0.000E+00  1.01260E+03  3.224E+00  4.675E+01  4.764E-01  2.769E-01
   1   13    3     8     4    2.1807E+02 -7.0530E-01   2.2529E+02  6.509E+00  0.000E+00  0.000E+00  1.00639E+03  3.261E+00  4.729E+01  4.819E+00 -4.879E-02
   1   13    2     8     5    2.2529E+02 -8.0239E-01   2.3260E+02  6.509E+00  0.000E+00  0.000E+00  1.00018E+03  3.301E+00  4.786E+01  4.877E+00 -5.484E-02
   1   13    1     8     6    2.3260E+02 -8.8693E-01   2.3739E+02  3.905E+00  0.000E+00  0.000E+00  9.95208E+02  3.333E+00  4.833E+01  2.955E+00 -1.000E-01



 UBDSV3 SAVING "     NETRECHARGE" ON UNIT 100 AT TIME STEP     4, STRESS PERIOD   2
 UBDSV3 SAVING "    NETDISCHARGE" ON UNIT 101 AT TIME STEP     4, STRESS PERIOD   2
 UBDSV3 SAVING "           GW ET" ON UNIT  61 AT TIME STEP     4, STRESS PERIOD   2
 UBDSV3 SAVING "    UZF RECHARGE" ON UNIT  61 AT TIME STEP     4, STRESS PERIOD   2
 UBDSV3 SAVING " SURFACE LEAKAGE" ON UNIT  61 AT TIME STEP     4, STRESS PERIOD   2
 UBDSV3 SAVING "       HORT+DUNN" ON UNIT  61 AT TIME STEP     4, STRESS PERIOD   2
 UBDSV3 SAVING "  STORAGE CHANGE" ON UNIT  61 AT TIME STEP     4, STRESS PERIOD   2


UNSATURATED ZONE PACKAGE VOLUMETRIC BUDGET FOR  TIME STEP     4 STRESS PERIOD    2
  ------------------------------------------------------------------------------



     CUMULATIVE VOLUMES      L**3       RATES FOR THIS TIME STEP      L**3/T
     ------------------                 ------------------------

           IN:                                      IN:
           ---                                      ---
        INFILTRATION =     8734426.9648          INFILTRATION =           2.9000

          OUT:                                     OUT:
          ----                                     ----
              UZF ET =       18102.0937                UZF ET =           0.0749
        UZF RECHARGE =     7634032.4794          UZF RECHARGE =           0.0283

            IN - OUT =     1082292.3917              IN - OUT =           2.7968

          STORAGE:                                 STORAGE:
          --------                                 --------
      STORAGE CHANGE =     1082292.3827        STORAGE CHANGE =           2.7968

 PERCENT DISCREPANCY IS DIFFERENCE BETWEEN IN-OUT MINUS CHANGE IN STORAGE
 DIVIDED BY THE AVERAGE OF IN AND OUT TIMES 100

 PERCENT DISCREPANCY =           0.00     PERCENT DISCREPANCY =           0.00






1
  VOLUMETRIC BUDGET FOR ENTIRE MODEL AT END OF TIME STEP    4, STRESS PERIOD   2
  ------------------------------------------------------------------------------

     CUMULATIVE VOLUMES      L**3       RATES FOR THIS TIME STEP      L**3/T
     ------------------                 ------------------------

           IN:                                      IN:
           ---                                      ---
             STORAGE =    13192702.0000               STORAGE =          34.2564
       CONSTANT HEAD =           0.0000         CONSTANT HEAD =           0.0000
               WELLS =           0.0000                 WELLS =           0.0000
     HEAD DEP BOUNDS =      903291.3750       HEAD DEP BOUNDS =           0.3000
      STREAM LEAKAGE =    41984740.0000        STREAM LEAKAGE =          14.9020
        UZF RECHARGE =     7634037.5000          UZF RECHARGE =       2.8306E-02
               GW ET =           0.0000                 GW ET =           0.0000
     SURFACE LEAKAGE =           0.0000       SURFACE LEAKAGE =           0.0000

            TOTAL IN =    63714768.0000              TOTAL IN =          49.4866

          OUT:                                     OUT:
          ----                                     ----
             STORAGE =      256255.5781               STORAGE =           0.5650
       CONSTANT HEAD =           0.0000         CONSTANT HEAD =           0.0000
               WELLS =    41634856.0000                 WELLS =          40.0000
     HEAD DEP BOUNDS =      861266.6250       HEAD DEP BOUNDS =           0.2853
      STREAM LEAKAGE =    15280430.0000        STREAM LEAKAGE =           2.3946
        UZF RECHARGE =           0.0000          UZF RECHARGE =           0.0000
               GW ET =     5682608.0000                 GW ET =           6.2434
     SURFACE LEAKAGE =           0.0000       SURFACE LEAKAGE =           0.0000

           TOTAL OUT =    63715416.0000             TOTAL OUT =          49.4884

            IN - OUT =        -648.0000              IN - OUT =      -1.7319E-03

 PERCENT DISCREPANCY =          -0.00     PERCENT DISCREPANCY =          -0.00






         TIME SUMMARY AT END OF TIME STEP    4 IN STRESS PERIOD    2
                    SECONDS     MINUTES      HOURS       DAYS        YEARS
                    -----------------------------------------------------------
   TIME STEP LENGTH 1.10091E+05  1834.9      30.581      1.2742     3.48858E-03
 STRESS PERIOD TIME 3.83871E+05  6397.9      106.63      4.4430     1.21642E-02
         TOTAL TIME 3.01187E+06  50198.      836.63      34.860     9.54404E-02
1
 
 SOLVING FOR HEAD 
                                                   Max.-Head-Change                         Max.-Flux-Residual
  Residual-Control   Outer-Iter.   Inner-Iter.     Column Row Layer    Maximum-Head-Change  Column Row Layer    Maximum-Flux-Residual          L2-NORM 
          0                 1           2             4    8     1      -0.7860137380E-01       4    8    1        -0.2973344282E+01      0.9082424340E+01
          0                 2           2             4    8     1       0.7788618260E-02       4    8    1         0.2973322002E+00      0.9072368250E+00
          0                 3           2             4    8     1      -0.6946095781E-03       4    8    1        -0.2675992323E-01      0.8164508150E-01
          0                 4           1             4    8     1       0.5513336885E-04       4    8    1         0.2143470223E-02      0.6539547916E-02

    ------------------------------------------------
       NWT REQUIRED            4 OUTER ITERATIONS 
       AND A TOTAL OF          7 INNER ITERATIONS.
    ------------------------------------------------

 OUTPUT CONTROL FOR STRESS PERIOD    2   TIME STEP    5
    PRINT BUDGET
    SAVE BUDGET

            WELLS   PERIOD    2   STEP   5
 WELL      1   LAYER   1   ROW     6   COL     4   RATE    -4.00000    
 WELL      2   LAYER   1   ROW     6   COL     5   RATE    -4.00000    
 WELL      3   LAYER   1   ROW     7   COL     4   RATE    -4.00000    
 WELL      4   LAYER   1   ROW     7   COL     5   RATE    -4.00000    
 WELL      5   LAYER   1   ROW     8   COL     4   RATE    -4.00000    
 WELL      6   LAYER   1   ROW     8   COL     5   RATE    -4.00000    
 WELL      7   LAYER   1   ROW     9   COL     4   RATE    -4.00000    
 WELL      8   LAYER   1   ROW     9   COL     5   RATE    -4.00000    
 WELL      9   LAYER   1   ROW    10   COL     4   RATE    -4.00000    
 WELL     10   LAYER   1   ROW    10   COL     5   RATE    -4.00000    

  HEAD DEP BOUNDS   PERIOD    2   STEP     5
 BOUNDARY      1   LAYER   1   ROW    13   COL     1   RATE   -0.285140    
 BOUNDARY      2   LAYER   1   ROW    14   COL     9   RATE    0.299991    



 STREAM LISTING     PERIOD      2   STEP        5

 LAYER ROW COL. STREAM  RCH.  FLOW INTO     FLOW TO   FLOW OUT OF   OVRLND.     DIRECT     STREAM       STREAM     STREAM     STREAM   STREAMBED  STREAMBED
                SEG.NO.  NO.  STRM. RCH.    AQUIFER    STRM. RCH.    RUNOFF     PRECIP       ET          HEAD       DEPTH      WIDTH   CONDCTNC.   GRADIENT

   1    1    1     1     1    2.5000E+01  2.4641E-01   2.5300E+01  5.466E-01  0.000E+00  0.000E+00  1.09423E+03  1.182E+00  1.309E+01  5.891E-02  1.394E+00
   1    2    2     1     2    2.5300E+01  3.8602E-01   2.5765E+01  8.503E-01  0.000E+00  0.000E+00  1.08925E+03  1.188E+00  1.317E+01  9.217E-02  1.396E+00
   1    3    3     1     3    2.5765E+01  3.3348E-01   2.6160E+01  7.289E-01  0.000E+00  0.000E+00  1.08361E+03  1.194E+00  1.325E+01  7.951E-02  1.398E+00
   1    3    4     1     4    2.6160E+01  3.1058E-01   2.6524E+01  6.742E-01  0.000E+00  0.000E+00  1.07861E+03  1.200E+00  1.332E+01  7.395E-02  1.400E+00
   1    4    5     2     1    1.6524E+01  3.0815E-28   1.7039E+01  5.151E-01  0.000E+00  0.000E+00  1.07288E+03  9.507E-01  1.200E+01  7.800E-29  1.317E+00
   1    5    6     2     2    1.7039E+01  2.3797E-28   1.7435E+01  3.962E-01  0.000E+00  0.000E+00  1.06748E+03  9.661E-01  1.200E+01  6.000E-29  1.322E+00
   1    6    6     2     3    1.7435E+01  2.3876E-28   1.7831E+01  3.962E-01  0.000E+00  0.000E+00  1.06277E+03  9.794E-01  1.200E+01  6.000E-29  1.326E+00
   1    7    6     2     4    1.7831E+01  2.3955E-28   1.8227E+01  3.962E-01  0.000E+00  0.000E+00  1.05807E+03  9.925E-01  1.200E+01  6.000E-29  1.331E+00
   1    8    6     2     5    1.8227E+01  2.4033E-28   1.8624E+01  3.962E-01  0.000E+00  0.000E+00  1.05336E+03  1.006E+00  1.200E+01  6.000E-29  1.335E+00
   1    3    5     3     1    1.0000E+01  2.8252E-01   1.1527E+01  1.809E+00  0.000E+00  0.000E+00  1.07555E+03  1.909E+00  9.636E+00  7.227E-02  1.955E+00
   1    3    6     3     2    1.1527E+01  2.4905E-01   1.3087E+01  1.809E+00  0.000E+00  0.000E+00  1.07264E+03  1.727E+00  8.909E+00  6.682E-02  1.864E+00
   1    3    7     3     3    1.3087E+01  1.9718E-01   1.4518E+01  1.628E+00  0.000E+00  0.000E+00  1.06987E+03  1.555E+00  8.218E+00  5.547E-02  1.777E+00
   1    4    8     3     4    1.4518E+01  2.2567E-01   1.6463E+01  2.171E+00  0.000E+00  0.000E+00  1.06682E+03  1.364E+00  7.455E+00  6.709E-02  1.682E+00
   1    5    8     3     5    1.6463E+01  1.5790E-01   1.8114E+01  1.809E+00  0.000E+00  0.000E+00  1.06362E+03  1.164E+00  6.655E+00  4.991E-02  1.582E+00
   1    6    8     3     6    1.8114E+01  5.5980E-02   1.8782E+01  7.236E-01  0.000E+00  0.000E+00  1.06158E+03  1.036E+00  6.145E+00  1.844E-02  1.518E+00
   1    5   10     4     1    1.0000E+01  9.1145E-29   1.0381E+01  3.807E-01  0.000E+00  0.000E+00  1.07837E+03  6.458E-01  1.000E+01  2.500E-29  1.215E+00
   1    5    9     4     2    1.0381E+01  1.8336E-28   1.1142E+01  7.614E-01  0.000E+00  0.000E+00  1.07158E+03  6.673E-01  1.000E+01  5.000E-29  1.222E+00
   1    6    8     4     3    1.1142E+01  1.2919E-28   1.1675E+01  5.330E-01  0.000E+00  0.000E+00  1.06387E+03  6.910E-01  1.000E+01  3.500E-29  1.230E+00
   1    6    8     5     1    3.0457E+01  4.7218E-01   3.0638E+01  6.533E-01  0.000E+00  0.000E+00  1.05899E+03  9.928E-01  2.956E+01  1.183E-01  1.331E+00
   1    7    7     5     2    3.0638E+01  5.9291E-01   3.0862E+01  8.167E-01  0.000E+00  0.000E+00  1.05450E+03  9.951E-01  2.968E+01  1.484E-01  1.332E+00
   1    8    7     5     3    3.0862E+01  4.1679E-01   3.1016E+01  5.717E-01  0.000E+00  0.000E+00  1.05025E+03  9.972E-01  2.979E+01  1.043E-01  1.332E+00
   1    8    6     5     4    3.1016E+01  2.9858E-01   3.1126E+01  4.083E-01  0.000E+00  0.000E+00  1.04725E+03  9.987E-01  2.987E+01  7.467E-02  1.333E+00
   1    9    6     6     1    4.9750E+01  2.9158E-28   5.1045E+01  1.295E+00  0.000E+00  0.000E+00  1.04459E+03  1.860E+00  1.200E+01  6.000E-29  1.620E+00
   1   10    7     6     2    5.1045E+01  2.9329E-28   5.2341E+01  1.295E+00  0.000E+00  0.000E+00  1.04007E+03  1.888E+00  1.200E+01  6.000E-29  1.629E+00
   1   11    7     6     3    5.2341E+01  2.9498E-28   5.3636E+01  1.295E+00  0.000E+00  0.000E+00  1.03555E+03  1.916E+00  1.200E+01  6.000E-29  1.639E+00
   1   12    7     6     4    5.3636E+01  2.9666E-28   5.4932E+01  1.295E+00  0.000E+00  0.000E+00  1.03104E+03  1.944E+00  1.200E+01  6.000E-29  1.648E+00
   1   13    7     6     5    5.4932E+01  6.8360E-27   5.5450E+01  5.182E-01  0.000E+00  0.000E+00  1.02787E+03  1.964E+00  1.200E+01  2.400E-27  9.494E-01
   1   14    9     7     1    1.5000E+02  1.5471E+00   1.4967E+02  1.218E+00  0.000E+00  0.000E+00  1.03987E+03  2.290E+00  5.531E+01  5.594E-01  9.219E-01
   1   13    8     7     2    1.4967E+02  2.5201E+00   1.4849E+02  1.340E+00  0.000E+00  0.000E+00  1.03479E+03  2.286E+00  5.529E+01  6.152E-01  1.366E+00
   1   13    7     7     3    1.4849E+02  2.6125E+00   1.4710E+02  1.218E+00  0.000E+00  0.000E+00  1.02970E+03  2.280E+00  5.526E+01  5.589E-01  1.558E+00
   1   13    6     8     1    2.0255E+02  2.1999E+00   2.0685E+02  6.509E+00  0.000E+00  0.000E+00  1.02504E+03  3.165E+00  4.589E+01  4.677E-01  1.568E+00
   1   13    5     8     2    2.0685E+02  1.4089E+00   2.1195E+02  6.509E+00  0.000E+00  0.000E+00  1.01882E+03  3.192E+00  4.629E+01  4.717E-01  9.956E-01
   1   13    4     8     3    2.1195E+02  4.0408E-01   2.1806E+02  6.509E+00  0.000E+00  0.000E+00  1.01260E+03  3.224E+00  4.675E+01  4.764E-01  2.827E-01
   1   13    3     8     4    2.1806E+02 -7.0855E-01   2.2528E+02  6.509E+00  0.000E+00  0.000E+00  1.00639E+03  3.261E+00  4.729E+01  4.819E+00 -4.901E-02
   1   13    2     8     5    2.2528E+02 -8.1622E-01   2.3260E+02  6.509E+00  0.000E+00  0.000E+00  1.00018E+03  3.301E+00  4.786E+01  4.877E+00 -5.578E-02
   1   13    1     8     6    2.3260E+02 -8.7298E-01   2.3738E+02  3.905E+00  0.000E+00  0.000E+00  9.95208E+02  3.333E+00  4.833E+01  2.955E+00 -9.847E-02



 UBDSV3 SAVING "     NETRECHARGE" ON UNIT 100 AT TIME STEP     5, STRESS PERIOD   2
 UBDSV3 SAVING "    NETDISCHARGE" ON UNIT 101 AT TIME STEP     5, STRESS PERIOD   2
 UBDSV3 SAVING "           GW ET" ON UNIT  61 AT TIME STEP     5, STRESS PERIOD   2
 UBDSV3 SAVING "    UZF RECHARGE" ON UNIT  61 AT TIME STEP     5, STRESS PERIOD   2
 UBDSV3 SAVING " SURFACE LEAKAGE" ON UNIT  61 AT TIME STEP     5, STRESS PERIOD   2
 UBDSV3 SAVING "       HORT+DUNN" ON UNIT  61 AT TIME STEP     5, STRESS PERIOD   2
 UBDSV3 SAVING "  STORAGE CHANGE" ON UNIT  61 AT TIME STEP     5, STRESS PERIOD   2


UNSATURATED ZONE PACKAGE VOLUMETRIC BUDGET FOR  TIME STEP     5 STRESS PERIOD    2
  ------------------------------------------------------------------------------



     CUMULATIVE VOLUMES      L**3       RATES FOR THIS TIME STEP      L**3/T
     ------------------                 ------------------------

           IN:                                      IN:
           ---                                      ---
        INFILTRATION =     9085617.5596          INFILTRATION =           2.9000

          OUT:                                     OUT:
          ----                                     ----
              UZF ET =       29980.2680                UZF ET =           0.0981
        UZF RECHARGE =     7637022.7228          UZF RECHARGE =           0.0247

            IN - OUT =     1418614.5688              IN - OUT =           2.7772

          STORAGE:                                 STORAGE:
          --------                                 --------
      STORAGE CHANGE =     1418614.5669        STORAGE CHANGE =           2.7772

 PERCENT DISCREPANCY IS DIFFERENCE BETWEEN IN-OUT MINUS CHANGE IN STORAGE
 DIVIDED BY THE AVERAGE OF IN AND OUT TIMES 100

 PERCENT DISCREPANCY =           0.00     PERCENT DISCREPANCY =           0.00






1
  VOLUMETRIC BUDGET FOR ENTIRE MODEL AT END OF TIME STEP    5, STRESS PERIOD   2
  ------------------------------------------------------------------------------

     CUMULATIVE VOLUMES      L**3       RATES FOR THIS TIME STEP      L**3/T
     ------------------                 ------------------------

           IN:                                      IN:
           ---                                      ---
             STORAGE =    17331016.0000               STORAGE =          34.1726
       CONSTANT HEAD =           0.0000         CONSTANT HEAD =           0.0000
               WELLS =           0.0000                 WELLS =           0.0000
     HEAD DEP BOUNDS =      939620.3125       HEAD DEP BOUNDS =           0.3000
      STREAM LEAKAGE =    43791296.0000        STREAM LEAKAGE =          14.9179
        UZF RECHARGE =     7637027.5000          UZF RECHARGE =       2.4692E-02
               GW ET =           0.0000                 GW ET =           0.0000
     SURFACE LEAKAGE =           0.0000       SURFACE LEAKAGE =           0.0000

            TOTAL IN =    69698960.0000              TOTAL IN =          49.4152

          OUT:                                     OUT:
          ----                                     ----
             STORAGE =      315915.0000               STORAGE =           0.4926
       CONSTANT HEAD =           0.0000         CONSTANT HEAD =           0.0000
               WELLS =    46478864.0000                 WELLS =          40.0000
     HEAD DEP BOUNDS =      895797.1875       HEAD DEP BOUNDS =           0.2851
      STREAM LEAKAGE =    15570797.0000        STREAM LEAKAGE =           2.3977
        UZF RECHARGE =           0.0000          UZF RECHARGE =           0.0000
               GW ET =     6438442.5000                 GW ET =           6.2414
     SURFACE LEAKAGE =           0.0000       SURFACE LEAKAGE =           0.0000

           TOTAL OUT =    69699816.0000             TOTAL OUT =          49.4169

            IN - OUT =        -856.0000              IN - OUT =      -1.7281E-03

 PERCENT DISCREPANCY =          -0.00     PERCENT DISCREPANCY =          -0.00






         TIME SUMMARY AT END OF TIME STEP    5 IN STRESS PERIOD    2
                    SECONDS     MINUTES      HOURS       DAYS        YEARS
                    -----------------------------------------------------------
   TIME STEP LENGTH 1.21100E+05  2018.3      33.639      1.4016     3.83743E-03
 STRESS PERIOD TIME 5.04972E+05  8416.2      140.27      5.8446     1.60016E-02
         TOTAL TIME 3.13297E+06  52216.      870.27      36.261     9.92779E-02
1
 
 SOLVING FOR HEAD 
                                                   Max.-Head-Change                         Max.-Flux-Residual
  Residual-Control   Outer-Iter.   Inner-Iter.     Column Row Layer    Maximum-Head-Change  Column Row Layer    Maximum-Flux-Residual          L2-NORM 
          0                 1           2             4    8     1      -0.8587182324E-01       4    8    1        -0.2955629957E+01      0.8925962607E+01
          0                 2           2             4    8     1       0.8509052844E-02       4    8    1         0.2955602329E+00      0.8924161717E+00
          0                 3           2             4    8     1      -0.7588599740E-03       4    8    1        -0.2660045140E-01      0.8031228693E-01
          0                 4           1             4    8     1       0.6023312613E-04       4    8    1         0.2130696495E-02      0.6432835877E-02

    ------------------------------------------------
       NWT REQUIRED            4 OUTER ITERATIONS 
       AND A TOTAL OF          7 INNER ITERATIONS.
    ------------------------------------------------

 NO OUTPUT CONTROL FOR STRESS PERIOD    2   TIME STEP    6
 
 SOLVING FOR HEAD 
                                                   Max.-Head-Change                         Max.-Flux-Residual
  Residual-Control   Outer-Iter.   Inner-Iter.     Column Row Layer    Maximum-Head-Change  Column Row Layer    Maximum-Flux-Residual          L2-NORM 
          0                 1           2             4    8     1      -0.9372169207E-01       4    8    1        -0.2935465574E+01      0.8765123601E+01
          0                 2           2             4    8     1       0.9286879763E-02       4    8    1         0.2935431172E+00      0.8763711375E+00
          0                 3           2             4    8     1      -0.8282288323E-03       4    8    1        -0.2641891760E-01      0.7886925653E-01
          0                 4           1             4    8     1       0.6573915129E-04       4    8    1         0.2116155569E-02      0.6317259492E-02

    ------------------------------------------------
       NWT REQUIRED            4 OUTER ITERATIONS 
       AND A TOTAL OF          7 INNER ITERATIONS.
    ------------------------------------------------

 NO OUTPUT CONTROL FOR STRESS PERIOD    2   TIME STEP    7
 
 SOLVING FOR HEAD 
                                                   Max.-Head-Change                         Max.-Flux-Residual
  Residual-Control   Outer-Iter.   Inner-Iter.     Column Row Layer    Maximum-Head-Change  Column Row Layer    Maximum-Flux-Residual          L2-NORM 
          0                 1           2             4    8     1      -0.1021740668E+00       4    8    1        -0.2912556036E+01      0.8600183052E+01
          0                 2           2             4    8     1       0.1012440050E-01       4    8    1         0.2912513095E+00      0.8599092115E+00
          0                 3           2             4    8     1      -0.9029214295E-03       4    8    1        -0.2621266328E-01      0.7738842080E-01
          0                 4           1             4    8     1       0.7166773775E-04       4    8    1         0.2099634520E-02      0.6198687343E-02

    ------------------------------------------------
       NWT REQUIRED            4 OUTER ITERATIONS 
       AND A TOTAL OF          7 INNER ITERATIONS.
    ------------------------------------------------

 NO OUTPUT CONTROL FOR STRESS PERIOD    2   TIME STEP    8
 
 SOLVING FOR HEAD 
                                                   Max.-Head-Change                         Max.-Flux-Residual
  Residual-Control   Outer-Iter.   Inner-Iter.     Column Row Layer    Maximum-Head-Change  Column Row Layer    Maximum-Flux-Residual          L2-NORM 
          0                 1           2             4    8     1      -0.1112465537E+00       4    8    1        -0.2886570291E+01      0.8431638883E+01
          0                 2           2             4    8     1       0.1102335643E-01       4    8    1         0.2886516656E+00      0.8430814432E+00
          0                 3           2             4    8     1      -0.9830930926E-03       4    8    1        -0.2597870580E-01      0.7587450678E-01
          0                 4           1             4    8     1       0.7803121425E-04       4    8    1         0.2080894447E-02      0.6077372371E-02

    ------------------------------------------------
       NWT REQUIRED            4 OUTER ITERATIONS 
       AND A TOTAL OF          7 INNER ITERATIONS.
    ------------------------------------------------

 NO OUTPUT CONTROL FOR STRESS PERIOD    2   TIME STEP    9
 
 SOLVING FOR HEAD 
                                                   Max.-Head-Change                         Max.-Flux-Residual
  Residual-Control   Outer-Iter.   Inner-Iter.     Column Row Layer    Maximum-Head-Change  Column Row Layer    Maximum-Flux-Residual          L2-NORM 
          0                 1           2             4    8     1      -0.1209501836E+00       4    8    1        -0.2857164294E+01      0.8259928922E+01
          0                 2           2             4    8     1       0.1198483633E-01       4    8    1         0.2857097365E+00      0.8259311148E+00
          0                 3           2             4    8     1      -0.1068840956E-02       4    8    1        -0.2571394520E-01      0.7433161397E-01
          0                 4           1             4    8     1       0.8483729000E-04       4    8    1         0.2059687015E-02      0.5953818827E-02

    ------------------------------------------------
       NWT REQUIRED            4 OUTER ITERATIONS 
       AND A TOTAL OF          7 INNER ITERATIONS.
    ------------------------------------------------

 OUTPUT CONTROL FOR STRESS PERIOD    2   TIME STEP   10
    PRINT BUDGET
    SAVE BUDGET

            WELLS   PERIOD    2   STEP  10
 WELL      1   LAYER   1   ROW     6   COL     4   RATE    -4.00000    
 WELL      2   LAYER   1   ROW     6   COL     5   RATE    -4.00000    
 WELL      3   LAYER   1   ROW     7   COL     4   RATE    -4.00000    
 WELL      4   LAYER   1   ROW     7   COL     5   RATE    -4.00000    
 WELL      5   LAYER   1   ROW     8   COL     4   RATE    -4.00000    
 WELL      6   LAYER   1   ROW     8   COL     5   RATE    -4.00000    
 WELL      7   LAYER   1   ROW     9   COL     4   RATE    -4.00000    
 WELL      8   LAYER   1   ROW     9   COL     5   RATE    -4.00000    
 WELL      9   LAYER   1   ROW    10   COL     4   RATE    -4.00000    
 WELL     10   LAYER   1   ROW    10   COL     5   RATE    -4.00000    

  HEAD DEP BOUNDS   PERIOD    2   STEP    10
 BOUNDARY      1   LAYER   1   ROW    13   COL     1   RATE   -0.284265    
 BOUNDARY      2   LAYER   1   ROW    14   COL     9   RATE    0.300122    



 STREAM LISTING     PERIOD      2   STEP       10

 LAYER ROW COL. STREAM  RCH.  FLOW INTO     FLOW TO   FLOW OUT OF   OVRLND.     DIRECT     STREAM       STREAM     STREAM     STREAM   STREAMBED  STREAMBED
                SEG.NO.  NO.  STRM. RCH.    AQUIFER    STRM. RCH.    RUNOFF     PRECIP       ET          HEAD       DEPTH      WIDTH   CONDCTNC.   GRADIENT

   1    1    1     1     1    2.5000E+01  2.4641E-01   2.5300E+01  5.466E-01  0.000E+00  0.000E+00  1.09423E+03  1.182E+00  1.309E+01  5.891E-02  1.394E+00
   1    2    2     1     2    2.5300E+01  3.8602E-01   2.5765E+01  8.503E-01  0.000E+00  0.000E+00  1.08925E+03  1.188E+00  1.317E+01  9.217E-02  1.396E+00
   1    3    3     1     3    2.5765E+01  3.3348E-01   2.6160E+01  7.289E-01  0.000E+00  0.000E+00  1.08361E+03  1.194E+00  1.325E+01  7.951E-02  1.398E+00
   1    3    4     1     4    2.6160E+01  3.1058E-01   2.6524E+01  6.742E-01  0.000E+00  0.000E+00  1.07861E+03  1.200E+00  1.332E+01  7.395E-02  1.400E+00
   1    4    5     2     1    1.6524E+01  0.0000E+00   1.7039E+01  5.151E-01  0.000E+00  0.000E+00  1.07288E+03  9.507E-01  1.200E+01  0.000E+00  1.317E+00
   1    5    6     2     2    1.7039E+01  0.0000E+00   1.7435E+01  3.962E-01  0.000E+00  0.000E+00  1.06748E+03  9.661E-01  1.200E+01  0.000E+00  1.322E+00
   1    6    6     2     3    1.7435E+01  0.0000E+00   1.7831E+01  3.962E-01  0.000E+00  0.000E+00  1.06277E+03  9.794E-01  1.200E+01  0.000E+00  1.326E+00
   1    7    6     2     4    1.7831E+01  0.0000E+00   1.8227E+01  3.962E-01  0.000E+00  0.000E+00  1.05807E+03  9.925E-01  1.200E+01  0.000E+00  1.331E+00
   1    8    6     2     5    1.8227E+01  0.0000E+00   1.8624E+01  3.962E-01  0.000E+00  0.000E+00  1.05336E+03  1.006E+00  1.200E+01  0.000E+00  1.335E+00
   1    3    5     3     1    1.0000E+01  2.8252E-01   1.1527E+01  1.809E+00  0.000E+00  0.000E+00  1.07555E+03  1.909E+00  9.636E+00  7.227E-02  1.955E+00
   1    3    6     3     2    1.1527E+01  2.4905E-01   1.3087E+01  1.809E+00  0.000E+00  0.000E+00  1.07264E+03  1.727E+00  8.909E+00  6.682E-02  1.864E+00
   1    3    7     3     3    1.3087E+01  1.9718E-01   1.4518E+01  1.628E+00  0.000E+00  0.000E+00  1.06987E+03  1.555E+00  8.218E+00  5.547E-02  1.777E+00
   1    4    8     3     4    1.4518E+01  2.2567E-01   1.6463E+01  2.171E+00  0.000E+00  0.000E+00  1.06682E+03  1.364E+00  7.455E+00  6.709E-02  1.682E+00
   1    5    8     3     5    1.6463E+01  1.5790E-01   1.8114E+01  1.809E+00  0.000E+00  0.000E+00  1.06362E+03  1.164E+00  6.655E+00  4.991E-02  1.582E+00
   1    6    8     3     6    1.8114E+01  5.5980E-02   1.8782E+01  7.236E-01  0.000E+00  0.000E+00  1.06158E+03  1.036E+00  6.145E+00  1.844E-02  1.518E+00
   1    5   10     4     1    1.0000E+01  0.0000E+00   1.0381E+01  3.807E-01  0.000E+00  0.000E+00  1.07837E+03  6.458E-01  1.000E+01  0.000E+00  1.215E+00
   1    5    9     4     2    1.0381E+01  0.0000E+00   1.1142E+01  7.614E-01  0.000E+00  0.000E+00  1.07158E+03  6.673E-01  1.000E+01  0.000E+00  1.222E+00
   1    6    8     4     3    1.1142E+01  0.0000E+00   1.1675E+01  5.330E-01  0.000E+00  0.000E+00  1.06387E+03  6.910E-01  1.000E+01  0.000E+00  1.230E+00
   1    6    8     5     1    3.0457E+01  4.7218E-01   3.0638E+01  6.533E-01  0.000E+00  0.000E+00  1.05899E+03  9.928E-01  2.956E+01  1.183E-01  1.331E+00
   1    7    7     5     2    3.0638E+01  5.9291E-01   3.0862E+01  8.167E-01  0.000E+00  0.000E+00  1.05450E+03  9.951E-01  2.968E+01  1.484E-01  1.332E+00
   1    8    7     5     3    3.0862E+01  4.1679E-01   3.1016E+01  5.717E-01  0.000E+00  0.000E+00  1.05025E+03  9.972E-01  2.979E+01  1.043E-01  1.332E+00
   1    8    6     5     4    3.1016E+01  2.9858E-01   3.1126E+01  4.083E-01  0.000E+00  0.000E+00  1.04725E+03  9.987E-01  2.987E+01  7.467E-02  1.333E+00
   1    9    6     6     1    4.9750E+01  0.0000E+00   5.1045E+01  1.295E+00  0.000E+00  0.000E+00  1.04459E+03  1.860E+00  1.200E+01  0.000E+00  1.620E+00
   1   10    7     6     2    5.1045E+01  0.0000E+00   5.2341E+01  1.295E+00  0.000E+00  0.000E+00  1.04007E+03  1.888E+00  1.200E+01  0.000E+00  1.629E+00
   1   11    7     6     3    5.2341E+01  0.0000E+00   5.3636E+01  1.295E+00  0.000E+00  0.000E+00  1.03555E+03  1.916E+00  1.200E+01  0.000E+00  1.639E+00
   1   12    7     6     4    5.3636E+01  0.0000E+00   5.4932E+01  1.295E+00  0.000E+00  0.000E+00  1.03104E+03  1.944E+00  1.200E+01  0.000E+00  1.648E+00
   1   13    7     6     5    5.4932E+01  0.0000E+00   5.5450E+01  5.182E-01  0.000E+00  0.000E+00  1.02787E+03  1.964E+00  1.200E+01  0.000E+00  9.497E-01
   1   14    9     7     1    1.5000E+02  1.5491E+00   1.4967E+02  1.218E+00  0.000E+00  0.000E+00  1.03987E+03  2.290E+00  5.531E+01  5.594E-01  9.230E-01
   1   13    8     7     2    1.4967E+02  2.5217E+00   1.4849E+02  1.340E+00  0.000E+00  0.000E+00  1.03479E+03  2.286E+00  5.529E+01  6.152E-01  1.366E+00
   1   13    7     7     3    1.4849E+02  2.6130E+00   1.4709E+02  1.218E+00  0.000E+00  0.000E+00  1.02970E+03  2.280E+00  5.526E+01  5.589E-01  1.558E+00
   1   13    6     8     1    2.0254E+02  2.1968E+00   2.0685E+02  6.509E+00  0.000E+00  0.000E+00  1.02504E+03  3.165E+00  4.589E+01  4.677E-01  1.566E+00
   1   13    5     8     2    2.0685E+02  1.4535E+00   2.1191E+02  6.509E+00  0.000E+00  0.000E+00  1.01882E+03  3.192E+00  4.629E+01  4.717E-01  1.027E+00
   1   13    4     8     3    2.1191E+02  4.5156E-01   2.1797E+02  6.509E+00  0.000E+00  0.000E+00  1.01260E+03  3.224E+00  4.674E+01  4.763E-01  3.160E-01
   1   13    3     8     4    2.1797E+02 -7.0232E-01   2.2518E+02  6.509E+00  0.000E+00  0.000E+00  1.00639E+03  3.261E+00  4.728E+01  4.818E+00 -4.859E-02
   1   13    2     8     5    2.2518E+02 -8.6918E-01   2.3256E+02  6.509E+00  0.000E+00  0.000E+00  1.00018E+03  3.300E+00  4.786E+01  4.877E+00 -5.941E-02
   1   13    1     8     6    2.3256E+02 -8.0606E-01   2.3727E+02  3.905E+00  0.000E+00  0.000E+00  9.95208E+02  3.333E+00  4.833E+01  2.955E+00 -9.093E-02



 UBDSV3 SAVING "     NETRECHARGE" ON UNIT 100 AT TIME STEP    10, STRESS PERIOD   2
 UBDSV3 SAVING "    NETDISCHARGE" ON UNIT 101 AT TIME STEP    10, STRESS PERIOD   2
 UBDSV3 SAVING "           GW ET" ON UNIT  61 AT TIME STEP    10, STRESS PERIOD   2
 UBDSV3 SAVING "    UZF RECHARGE" ON UNIT  61 AT TIME STEP    10, STRESS PERIOD   2
 UBDSV3 SAVING " SURFACE LEAKAGE" ON UNIT  61 AT TIME STEP    10, STRESS PERIOD   2
 UBDSV3 SAVING "       HORT+DUNN" ON UNIT  61 AT TIME STEP    10, STRESS PERIOD   2
 UBDSV3 SAVING "  STORAGE CHANGE" ON UNIT  61 AT TIME STEP    10, STRESS PERIOD   2


UNSATURATED ZONE PACKAGE VOLUMETRIC BUDGET FOR  TIME STEP    10 STRESS PERIOD    2
  ------------------------------------------------------------------------------



     CUMULATIVE VOLUMES      L**3       RATES FOR THIS TIME STEP      L**3/T
     ------------------                 ------------------------

           IN:                                      IN:
           ---                                      ---
        INFILTRATION =    11444076.8271          INFILTRATION =           2.9000

          OUT:                                     OUT:
          ----                                     ----
              UZF ET =      179846.1455                UZF ET =           0.2373
        UZF RECHARGE =     7648213.4526          UZF RECHARGE =           0.0079

            IN - OUT =     3616017.2290              IN - OUT =           2.6548

          STORAGE:                                 STORAGE:
          --------                                 --------
      STORAGE CHANGE =     3616017.1964        STORAGE CHANGE =           2.6548

 PERCENT DISCREPANCY IS DIFFERENCE BETWEEN IN-OUT MINUS CHANGE IN STORAGE
 DIVIDED BY THE AVERAGE OF IN AND OUT TIMES 100

 PERCENT DISCREPANCY =           0.00     PERCENT DISCREPANCY =           0.00






1
  VOLUMETRIC BUDGET FOR ENTIRE MODEL AT END OF TIME STEP   10, STRESS PERIOD   2
  ------------------------------------------------------------------------------

     CUMULATIVE VOLUMES      L**3       RATES FOR THIS TIME STEP      L**3/T
     ------------------                 ------------------------

           IN:                                      IN:
           ---                                      ---
             STORAGE =    44893144.0000               STORAGE =          33.7265
       CONSTANT HEAD =           0.0000         CONSTANT HEAD =           0.0000
               WELLS =           0.0000                 WELLS =           0.0000
     HEAD DEP BOUNDS =     1183655.8750       HEAD DEP BOUNDS =           0.3001
      STREAM LEAKAGE =    55970284.0000        STREAM LEAKAGE =          15.0109
        UZF RECHARGE =     7648218.0000          UZF RECHARGE =       7.8748E-03
               GW ET =           0.0000                 GW ET =           0.0000
     SURFACE LEAKAGE =           0.0000       SURFACE LEAKAGE =           0.0000

            TOTAL IN =   109695304.0000              TOTAL IN =          49.0454

          OUT:                                     OUT:
          ----                                     ----
             STORAGE =      538711.6250               STORAGE =           0.1561
       CONSTANT HEAD =           0.0000         CONSTANT HEAD =           0.0000
               WELLS =    79009344.0000                 WELLS =          40.0000
     HEAD DEP BOUNDS =     1127231.1250       HEAD DEP BOUNDS =           0.2843
      STREAM LEAKAGE =    17514094.0000        STREAM LEAKAGE =           2.3776
        UZF RECHARGE =           0.0000          UZF RECHARGE =           0.0000
               GW ET =    11508182.0000                 GW ET =           6.2292
     SURFACE LEAKAGE =           0.0000       SURFACE LEAKAGE =           0.0000

           TOTAL OUT =   109697568.0000             TOTAL OUT =          49.0471

            IN - OUT =       -2264.0000              IN - OUT =      -1.7090E-03

 PERCENT DISCREPANCY =          -0.00     PERCENT DISCREPANCY =          -0.00






         TIME SUMMARY AT END OF TIME STEP   10 IN STRESS PERIOD    2
                    SECONDS     MINUTES      HOURS       DAYS        YEARS
                    -----------------------------------------------------------
   TIME STEP LENGTH 1.95033E+05  3250.6      54.176      2.2573     6.18023E-03
 STRESS PERIOD TIME 1.31823E+06  21971.      366.18      15.257     4.17723E-02
         TOTAL TIME 3.94623E+06  65771.      1096.2      45.674     0.12505    
1
 
 SOLVING FOR HEAD 
                                                   Max.-Head-Change                         Max.-Flux-Residual
  Residual-Control   Outer-Iter.   Inner-Iter.     Column Row Layer    Maximum-Head-Change  Column Row Layer    Maximum-Flux-Residual          L2-NORM 
          0                 1           2             4    8     1      -0.1312876201E+00       4    8    1        -0.2823984113E+01      0.8085558587E+01
          0                 2           2             4    8     1       0.1300909862E-01       4    8    1         0.2823900807E+00      0.8085075548E+00
          0                 3           2             4    8     1      -0.1160188106E-02       4    8    1        -0.2541519222E-01      0.7276398267E-01
          0                 4           1             4    8     1       0.9208779580E-04       4    8    1         0.2035756764E-02      0.5828264422E-02

    ------------------------------------------------
       NWT REQUIRED            4 OUTER ITERATIONS 
       AND A TOTAL OF          7 INNER ITERATIONS.
    ------------------------------------------------

 NO OUTPUT CONTROL FOR STRESS PERIOD    2   TIME STEP   11
 
 SOLVING FOR HEAD 
                                                   Max.-Head-Change                         Max.-Flux-Residual
  Residual-Control   Outer-Iter.   Inner-Iter.     Column Row Layer    Maximum-Head-Change  Column Row Layer    Maximum-Flux-Residual          L2-NORM 
          0                 1           2             4    8     1      -0.1422517064E+00       4    8    1        -0.2786680651E+01      0.7908996914E+01
          0                 2           2             4    8     1       0.1409542813E-01       4    8    1         0.2786577367E+00      0.7908554589E+00
          0                 3           2             4    8     1      -0.1257070854E-02       4    8    1        -0.2507930083E-01      0.7117554051E-01
          0                 4           1             4    8     1       0.9977767684E-04       4    8    1         0.2008851696E-02      0.5701022998E-02

    ------------------------------------------------
       NWT REQUIRED            4 OUTER ITERATIONS 
       AND A TOTAL OF          7 INNER ITERATIONS.
    ------------------------------------------------

 NO OUTPUT CONTROL FOR STRESS PERIOD    2   TIME STEP   12
 
 SOLVING FOR HEAD 
                                                   Max.-Head-Change                         Max.-Flux-Residual
  Residual-Control   Outer-Iter.   Inner-Iter.     Column Row Layer    Maximum-Head-Change  Column Row Layer    Maximum-Flux-Residual          L2-NORM 
          0                 1           2             4    8     1      -0.1538232413E+00       4    8    1        -0.2744907925E+01      0.7730705066E+01
          0                 2           2             4    8     1       0.1524191475E-01       4    8    1         0.2744780555E+00      0.7730266239E+00
          0                 3           2             4    8     1      -0.1359318952E-02       4    8    1        -0.2470315312E-01      0.6957108707E-01
          0                 4           2             4    8     1       0.1078934234E-03       4    8    1         0.1978722073E-02      0.5572534650E-02
          0                 5           1             4    8     1      -0.7516041925E-05       4    8    1        -0.1391022495E-03      0.3917386924E-03

    ------------------------------------------------
       NWT REQUIRED            5 OUTER ITERATIONS 
       AND A TOTAL OF          9 INNER ITERATIONS.
    ------------------------------------------------

 NO OUTPUT CONTROL FOR STRESS PERIOD    2   TIME STEP   13
 
 SOLVING FOR HEAD 
                                                   Max.-Head-Change                         Max.-Flux-Residual
  Residual-Control   Outer-Iter.   Inner-Iter.     Column Row Layer    Maximum-Head-Change  Column Row Layer    Maximum-Flux-Residual          L2-NORM 
          0                 1           2             4    8     1      -0.1659705353E+00       4    8    1        -0.2698359005E+01      0.7551083729E+01
          0                 2           2             4    8     1       0.1644540826E-01       4    8    1         0.2698202960E+00      0.7550639356E+00
          0                 3           2             4    8     1      -0.1466651524E-02       4    8    1        -0.2428398286E-01      0.6795456782E-01
          0                 4           2             4    8     1       0.1164127359E-03       4    8    1         0.1945146307E-02      0.5443045896E-02
          0                 5           1             4    8     1      -0.8109511605E-05       4    8    1        -0.1367419079E-03      0.3826237406E-03

    ------------------------------------------------
       NWT REQUIRED            5 OUTER ITERATIONS 
       AND A TOTAL OF          9 INNER ITERATIONS.
    ------------------------------------------------

 NO OUTPUT CONTROL FOR STRESS PERIOD    2   TIME STEP   14
 
 SOLVING FOR HEAD 
                                                   Max.-Head-Change                         Max.-Flux-Residual
  Residual-Control   Outer-Iter.   Inner-Iter.     Column Row Layer    Maximum-Head-Change  Column Row Layer    Maximum-Flux-Residual          L2-NORM 
          0                 1           2             4    8     1      -0.1786478785E+00       4    8    1        -0.2646767614E+01      0.7370559558E+01
          0                 2           2             4    8     1       0.1770136846E-01       4    8    1         0.2646577924E+00      0.7370102184E+00
          0                 3           2             4    8     1      -0.1578663771E-02       4    8    1        -0.2381939051E-01      0.6632987629E-01
          0                 4           2             4    8     1       0.1253034838E-03       4    8    1         0.1907932182E-02      0.5312933585E-02
          0                 5           1             4    8     1      -0.8728856130E-05       4    8    1        -0.1341257891E-03      0.3734989599E-03

    ------------------------------------------------
       NWT REQUIRED            5 OUTER ITERATIONS 
       AND A TOTAL OF          9 INNER ITERATIONS.
    ------------------------------------------------

 OUTPUT CONTROL FOR STRESS PERIOD    2   TIME STEP   15
    PRINT BUDGET
    PRINT HEAD FOR ALL LAYERS
    SAVE HEAD FOR ALL LAYERS
    SAVE BUDGET

            WELLS   PERIOD    2   STEP  15
 WELL      1   LAYER   1   ROW     6   COL     4   RATE    -4.00000    
 WELL      2   LAYER   1   ROW     6   COL     5   RATE    -4.00000    
 WELL      3   LAYER   1   ROW     7   COL     4   RATE    -4.00000    
 WELL      4   LAYER   1   ROW     7   COL     5   RATE    -4.00000    
 WELL      5   LAYER   1   ROW     8   COL     4   RATE    -4.00000    
 WELL      6   LAYER   1   ROW     8   COL     5   RATE    -4.00000    
 WELL      7   LAYER   1   ROW     9   COL     4   RATE    -4.00000    
 WELL      8   LAYER   1   ROW     9   COL     5   RATE    -4.00000    
 WELL      9   LAYER   1   ROW    10   COL     4   RATE    -4.00000    
 WELL     10   LAYER   1   ROW    10   COL     5   RATE    -4.00000    

  HEAD DEP BOUNDS   PERIOD    2   STEP    15
 BOUNDARY      1   LAYER   1   ROW    13   COL     1   RATE   -0.283576    
 BOUNDARY      2   LAYER   1   ROW    14   COL     9   RATE    0.300316    



 STREAM LISTING     PERIOD      2   STEP       15

 LAYER ROW COL. STREAM  RCH.  FLOW INTO     FLOW TO   FLOW OUT OF   OVRLND.     DIRECT     STREAM       STREAM     STREAM     STREAM   STREAMBED  STREAMBED
                SEG.NO.  NO.  STRM. RCH.    AQUIFER    STRM. RCH.    RUNOFF     PRECIP       ET          HEAD       DEPTH      WIDTH   CONDCTNC.   GRADIENT

   1    1    1     1     1    2.5000E+01  2.4641E-01   2.5300E+01  5.466E-01  0.000E+00  0.000E+00  1.09423E+03  1.182E+00  1.309E+01  5.891E-02  1.394E+00
   1    2    2     1     2    2.5300E+01  3.8602E-01   2.5765E+01  8.503E-01  0.000E+00  0.000E+00  1.08925E+03  1.188E+00  1.317E+01  9.217E-02  1.396E+00
   1    3    3     1     3    2.5765E+01  3.3348E-01   2.6160E+01  7.289E-01  0.000E+00  0.000E+00  1.08361E+03  1.194E+00  1.325E+01  7.951E-02  1.398E+00
   1    3    4     1     4    2.6160E+01  3.1058E-01   2.6524E+01  6.742E-01  0.000E+00  0.000E+00  1.07861E+03  1.200E+00  1.332E+01  7.395E-02  1.400E+00
   1    4    5     2     1    1.6524E+01  0.0000E+00   1.7039E+01  5.151E-01  0.000E+00  0.000E+00  1.07288E+03  9.507E-01  1.200E+01  0.000E+00  1.317E+00
   1    5    6     2     2    1.7039E+01  0.0000E+00   1.7435E+01  3.962E-01  0.000E+00  0.000E+00  1.06748E+03  9.661E-01  1.200E+01  0.000E+00  1.322E+00
   1    6    6     2     3    1.7435E+01  0.0000E+00   1.7831E+01  3.962E-01  0.000E+00  0.000E+00  1.06277E+03  9.794E-01  1.200E+01  0.000E+00  1.326E+00
   1    7    6     2     4    1.7831E+01  0.0000E+00   1.8227E+01  3.962E-01  0.000E+00  0.000E+00  1.05807E+03  9.925E-01  1.200E+01  0.000E+00  1.331E+00
   1    8    6     2     5    1.8227E+01  0.0000E+00   1.8624E+01  3.962E-01  0.000E+00  0.000E+00  1.05336E+03  1.006E+00  1.200E+01  0.000E+00  1.335E+00
   1    3    5     3     1    1.0000E+01  2.8252E-01   1.1527E+01  1.809E+00  0.000E+00  0.000E+00  1.07555E+03  1.909E+00  9.636E+00  7.227E-02  1.955E+00
   1    3    6     3     2    1.1527E+01  2.4905E-01   1.3087E+01  1.809E+00  0.000E+00  0.000E+00  1.07264E+03  1.727E+00  8.909E+00  6.682E-02  1.864E+00
   1    3    7     3     3    1.3087E+01  1.9718E-01   1.4518E+01  1.628E+00  0.000E+00  0.000E+00  1.06987E+03  1.555E+00  8.218E+00  5.547E-02  1.777E+00
   1    4    8     3     4    1.4518E+01  2.2567E-01   1.6463E+01  2.171E+00  0.000E+00  0.000E+00  1.06682E+03  1.364E+00  7.455E+00  6.709E-02  1.682E+00
   1    5    8     3     5    1.6463E+01  1.5790E-01   1.8114E+01  1.809E+00  0.000E+00  0.000E+00  1.06362E+03  1.164E+00  6.655E+00  4.991E-02  1.582E+00
   1    6    8     3     6    1.8114E+01  5.5980E-02   1.8782E+01  7.236E-01  0.000E+00  0.000E+00  1.06158E+03  1.036E+00  6.145E+00  1.844E-02  1.518E+00
   1    5   10     4     1    1.0000E+01  0.0000E+00   1.0381E+01  3.807E-01  0.000E+00  0.000E+00  1.07837E+03  6.458E-01  1.000E+01  0.000E+00  1.215E+00
   1    5    9     4     2    1.0381E+01  0.0000E+00   1.1142E+01  7.614E-01  0.000E+00  0.000E+00  1.07158E+03  6.673E-01  1.000E+01  0.000E+00  1.222E+00
   1    6    8     4     3    1.1142E+01  0.0000E+00   1.1675E+01  5.330E-01  0.000E+00  0.000E+00  1.06387E+03  6.910E-01  1.000E+01  0.000E+00  1.230E+00
   1    6    8     5     1    3.0457E+01  4.7218E-01   3.0638E+01  6.533E-01  0.000E+00  0.000E+00  1.05899E+03  9.928E-01  2.956E+01  1.183E-01  1.331E+00
   1    7    7     5     2    3.0638E+01  5.9291E-01   3.0862E+01  8.167E-01  0.000E+00  0.000E+00  1.05450E+03  9.951E-01  2.968E+01  1.484E-01  1.332E+00
   1    8    7     5     3    3.0862E+01  4.1679E-01   3.1016E+01  5.717E-01  0.000E+00  0.000E+00  1.05025E+03  9.972E-01  2.979E+01  1.043E-01  1.332E+00
   1    8    6     5     4    3.1016E+01  2.9858E-01   3.1126E+01  4.083E-01  0.000E+00  0.000E+00  1.04725E+03  9.987E-01  2.987E+01  7.467E-02  1.333E+00
   1    9    6     6     1    4.9750E+01  0.0000E+00   5.1045E+01  1.295E+00  0.000E+00  0.000E+00  1.04459E+03  1.860E+00  1.200E+01  0.000E+00  1.620E+00
   1   10    7     6     2    5.1045E+01  0.0000E+00   5.2341E+01  1.295E+00  0.000E+00  0.000E+00  1.04007E+03  1.888E+00  1.200E+01  0.000E+00  1.629E+00
   1   11    7     6     3    5.2341E+01  0.0000E+00   5.3636E+01  1.295E+00  0.000E+00  0.000E+00  1.03555E+03  1.916E+00  1.200E+01  0.000E+00  1.639E+00
   1   12    7     6     4    5.3636E+01  0.0000E+00   5.4932E+01  1.295E+00  0.000E+00  0.000E+00  1.03104E+03  1.944E+00  1.200E+01  0.000E+00  1.648E+00
   1   13    7     6     5    5.4932E+01  0.0000E+00   5.5450E+01  5.182E-01  0.000E+00  0.000E+00  1.02787E+03  1.964E+00  1.200E+01  0.000E+00  9.505E-01
   1   14    9     7     1    1.5000E+02  1.5519E+00   1.4967E+02  1.218E+00  0.000E+00  0.000E+00  1.03987E+03  2.290E+00  5.531E+01  5.594E-01  9.247E-01
   1   13    8     7     2    1.4967E+02  2.5242E+00   1.4848E+02  1.340E+00  0.000E+00  0.000E+00  1.03479E+03  2.286E+00  5.529E+01  6.152E-01  1.368E+00
   1   13    7     7     3    1.4848E+02  2.6142E+00   1.4708E+02  1.218E+00  0.000E+00  0.000E+00  1.02970E+03  2.279E+00  5.526E+01  5.589E-01  1.559E+00
   1   13    6     8     1    2.0253E+02  2.2006E+00   2.0684E+02  6.509E+00  0.000E+00  0.000E+00  1.02504E+03  3.165E+00  4.589E+01  4.677E-01  1.568E+00
   1   13    5     8     2    2.0684E+02  1.5044E+00   2.1185E+02  6.509E+00  0.000E+00  0.000E+00  1.01882E+03  3.192E+00  4.628E+01  4.716E-01  1.063E+00
   1   13    4     8     3    2.1185E+02  5.0530E-01   2.1785E+02  6.509E+00  0.000E+00  0.000E+00  1.01260E+03  3.223E+00  4.674E+01  4.762E-01  3.537E-01
   1   13    3     8     4    2.1785E+02 -6.5823E-01   2.2502E+02  6.509E+00  0.000E+00  0.000E+00  1.00638E+03  3.260E+00  4.727E+01  4.817E+00 -4.555E-02
   1   13    2     8     5    2.2502E+02 -8.9000E-01   2.3242E+02  6.509E+00  0.000E+00  0.000E+00  1.00017E+03  3.300E+00  4.784E+01  4.876E+00 -6.085E-02
   1   13    1     8     6    2.3242E+02 -7.5487E-01   2.3708E+02  3.905E+00  0.000E+00  0.000E+00  9.95207E+02  3.332E+00  4.831E+01  2.954E+00 -8.518E-02



 UBDSV3 SAVING "     NETRECHARGE" ON UNIT 100 AT TIME STEP    15, STRESS PERIOD   2
 UBDSV3 SAVING "    NETDISCHARGE" ON UNIT 101 AT TIME STEP    15, STRESS PERIOD   2
 UBDSV3 SAVING "           GW ET" ON UNIT  61 AT TIME STEP    15, STRESS PERIOD   2
 UBDSV3 SAVING "    UZF RECHARGE" ON UNIT  61 AT TIME STEP    15, STRESS PERIOD   2
 UBDSV3 SAVING " SURFACE LEAKAGE" ON UNIT  61 AT TIME STEP    15, STRESS PERIOD   2
 UBDSV3 SAVING "       HORT+DUNN" ON UNIT  61 AT TIME STEP    15, STRESS PERIOD   2
 UBDSV3 SAVING "  STORAGE CHANGE" ON UNIT  61 AT TIME STEP    15, STRESS PERIOD   2


UNSATURATED ZONE PACKAGE VOLUMETRIC BUDGET FOR  TIME STEP    15 STRESS PERIOD    2
  ------------------------------------------------------------------------------



     CUMULATIVE VOLUMES      L**3       RATES FOR THIS TIME STEP      L**3/T
     ------------------                 ------------------------

           IN:                                      IN:
           ---                                      ---
        INFILTRATION =    15242399.1787          INFILTRATION =           2.9000

          OUT:                                     OUT:
          ----                                     ----
              UZF ET =      655788.0464                UZF ET =           0.4435
        UZF RECHARGE =     7651503.3377          UZF RECHARGE =           0.0012

            IN - OUT =     6935107.7946              IN - OUT =           2.4552

          STORAGE:                                 STORAGE:
          --------                                 --------
      STORAGE CHANGE =     6935107.7900        STORAGE CHANGE =           2.4552

 PERCENT DISCREPANCY IS DIFFERENCE BETWEEN IN-OUT MINUS CHANGE IN STORAGE
 DIVIDED BY THE AVERAGE OF IN AND OUT TIMES 100

 PERCENT DISCREPANCY =           0.00     PERCENT DISCREPANCY =           0.00






1
              HEAD IN LAYER   1 AT END OF TIME STEP    15 IN STRESS PERIOD    2
  -----------------------------------------------------------------------------

           1       2       3       4       5       6       7       8       9      10
 ...................................................................................
   1  1029.29 1025.72 6999.00 6999.00 6999.00 6999.00 6999.00 6999.00 6999.00 6999.00
   2  1026.13 1021.19 1019.18 6999.00 6999.00 1017.66 1017.92 1018.07 6999.00 6999.00
   3  6999.00 1018.21 1017.04 1016.12 1016.03 1016.47 1017.12 1017.29 6999.00 6999.00
   4  1016.20 1016.25 1015.51 1014.68 1014.38 1014.49 1015.23 1016.55 1016.25 6999.00
   5  1015.41 1014.70 1013.93 1013.19 1013.28 1013.81 1014.33 1014.95 1015.25 1015.53
   6  1014.62 1013.66 1012.56 1010.77 1011.17 1013.08 1014.05 1014.80 1015.20 1015.91
   7  1014.10 1012.86 1011.74 1009.83 1010.42 1012.72 1014.01 1014.47 1015.44 6999.00
   8  6999.00 1012.22 1011.35 1009.50 1010.24 1012.69 1013.95 1014.75 1016.37 6999.00
   9  6999.00 1011.71 1011.23 1009.67 1010.49 1012.91 1014.19 1015.60 1017.94 6999.00
  10  6999.00 1011.14 1011.23 1010.36 1011.31 1013.76 1015.11 1016.99 1019.65 1020.54
  11  6999.00 1009.78 1010.88 1012.16 1013.49 1015.39 1017.07 1019.71 1022.88 6999.00
  12  1000.95 1005.81 1009.36 1012.07 1014.62 1017.43 1019.99 1024.66 1028.52 6999.00
  13   995.46 1000.36 1006.52 1011.54 1015.63 1020.33 1025.02 1030.68 1033.74 6999.00
  14  6999.00 1005.66 1008.41 1012.46 1016.48 1020.74 1025.95 1032.18 1037.10 6999.00
  15  6999.00 6999.00 1011.87 1014.24 1017.25 1019.99 6999.00 6999.00 6999.00 6999.00

 HEAD WILL BE SAVED ON UNIT   58 AT END OF TIME STEP   15, STRESS PERIOD    2
1
  VOLUMETRIC BUDGET FOR ENTIRE MODEL AT END OF TIME STEP   15, STRESS PERIOD   2
  ------------------------------------------------------------------------------

     CUMULATIVE VOLUMES      L**3       RATES FOR THIS TIME STEP      L**3/T
     ------------------                 ------------------------

           IN:                                      IN:
           ---                                      ---
             STORAGE =    88769440.0000               STORAGE =          33.3946
       CONSTANT HEAD =           0.0000         CONSTANT HEAD =           0.0000
               WELLS =           0.0000                 WELLS =           0.0000
     HEAD DEP BOUNDS =     1576900.0000       HEAD DEP BOUNDS =           0.3003
      STREAM LEAKAGE =    75725088.0000        STREAM LEAKAGE =          15.1259
        UZF RECHARGE =     7651508.0000          UZF RECHARGE =       1.2396E-03
               GW ET =           0.0000                 GW ET =           0.0000
     SURFACE LEAKAGE =           0.0000       SURFACE LEAKAGE =           0.0000

            TOTAL IN =   173722928.0000              TOTAL IN =          48.8221

          OUT:                                     OUT:
          ----                                     ----
             STORAGE =      604287.6875               STORAGE =       2.4187E-02
       CONSTANT HEAD =           0.0000         CONSTANT HEAD =           0.0000
               WELLS =   131399992.0000                 WELLS =          40.0000
     HEAD DEP BOUNDS =     1498949.0000       HEAD DEP BOUNDS =           0.2836
      STREAM LEAKAGE =    20570156.0000        STREAM LEAKAGE =           2.3031
        UZF RECHARGE =           0.0000          UZF RECHARGE =           0.0000
               GW ET =    19652474.0000                 GW ET =           6.2111
     SURFACE LEAKAGE =           0.0000       SURFACE LEAKAGE =           0.0000

           TOTAL OUT =   173725872.0000             TOTAL OUT =          48.8220

            IN - OUT =       -2944.0000              IN - OUT =       1.0300E-04

 PERCENT DISCREPANCY =          -0.00     PERCENT DISCREPANCY =           0.00






         TIME SUMMARY AT END OF TIME STEP   15 IN STRESS PERIOD    2
                    SECONDS     MINUTES      HOURS       DAYS        YEARS
                    -----------------------------------------------------------
   TIME STEP LENGTH 3.14103E+05  5235.0      87.251      3.6354     9.95332E-03
 STRESS PERIOD TIME 2.62800E+06  43800.      730.00      30.417     8.32763E-02
         TOTAL TIME 5.25600E+06  87600.      1460.0      60.833     0.16655    
1
1
                            STRESS PERIOD NO.    3, LENGTH =   2628000.    
                            -----------------------------------------------

                              NUMBER OF TIME STEPS =    15

                               MULTIPLIER FOR DELT =     1.100

                            INITIAL TIME STEP SIZE =   82713.07    

 WELL NO.  LAYER   ROW   COL   STRESS RATE         
 --------------------------------------------------
      1      1      6      4      -4.000    
      2      1      6      5      -4.000    
      3      1      7      4      -4.000    
      4      1      7      5      -4.000    
      5      1      8      4      -4.000    
      6      1      8      5      -4.000    
      7      1      9      4      -4.000    
      8      1      9      5      -4.000    
      9      1     10      4      -4.000    
     10      1     10      5      -4.000    

     10 WELLS

 REUSING NON-PARAMETER GHB CELLS FROM LAST STRESS PERIOD

      2 GHB CELLS

 REUSING STREAM SEGMENT DATA FROM LAST STRESS PERIOD



            AREAL INFILTRATION RATE
 READING ON UNIT   19 WITH FORMAT: (10F4.0)            

            1           2           3           4           5           6           7           8           9          10
 ........................................................................................................................
   1   1.0000E-08  2.0000E-08   0.000       0.000       0.000       0.000       0.000       0.000       0.000       0.000    
   2   2.0000E-08  1.0000E-08  2.0000E-08   0.000       0.000      8.0000E-08  8.0000E-08  5.0000E-08   0.000       0.000    
   3    0.000      5.0000E-08  1.0000E-08  1.0000E-08  8.0000E-08  8.0000E-08  5.0000E-08  5.0000E-08   0.000       0.000    
   4   8.0000E-08  5.0000E-08  1.0000E-08  1.0000E-08  1.0000E-08  1.0000E-08  1.0000E-08  1.0000E-08  2.0000E-08   0.000    
   5   8.0000E-08  5.0000E-08  1.0000E-08  1.0000E-08  1.0000E-08  1.0000E-08  1.0000E-08  1.0000E-08  1.0000E-08  1.0000E-08
   6   8.0000E-08  5.0000E-08  5.0000E-08  2.0000E-08  2.0000E-08  1.0000E-08  1.0000E-08  1.0000E-08  1.0000E-08  5.0000E-08
   7   8.0000E-08  5.0000E-08  5.0000E-08  2.0000E-08  2.0000E-08  1.0000E-08  1.0000E-08  2.0000E-08  2.0000E-08   0.000    
   8    0.000      5.0000E-08  5.0000E-08  2.0000E-08  2.0000E-08  1.0000E-08  1.0000E-08  2.0000E-08  5.0000E-08   0.000    
   9    0.000      5.0000E-08  5.0000E-08  2.0000E-08  2.0000E-08  1.0000E-08  1.0000E-08  2.0000E-08  5.0000E-08   0.000    
  10    0.000      5.0000E-08  5.0000E-08  2.0000E-08  2.0000E-08  1.0000E-08  1.0000E-08  2.0000E-08  5.0000E-08  8.0000E-08
  11    0.000      1.0000E-08  1.0000E-08  1.0000E-08  1.0000E-08  1.0000E-08  1.0000E-08  2.0000E-08  5.0000E-08   0.000    
  12   1.0000E-08  1.0000E-08  1.0000E-08  1.0000E-08  1.0000E-08  1.0000E-08  1.0000E-08  1.0000E-08  2.0000E-08   0.000    
  13   1.0000E-08  1.0000E-08  2.0000E-08  2.0000E-08  2.0000E-08  2.0000E-08  2.0000E-08  1.0000E-08  1.0000E-08   0.000    
  14    0.000      2.0000E-08  5.0000E-08  5.0000E-08  5.0000E-08  5.0000E-08  5.0000E-08  2.0000E-08  1.0000E-08   0.000    
  15    0.000       0.000      8.0000E-08  8.0000E-08  8.0000E-08  8.0000E-08   0.000       0.000       0.000       0.000    

USING ET RATE FROM PREVIOUS STRESS PERIOD. CURRENT PERIOD IS:       3

 USING ET EXTINCTION DEPTH FROM PREVIOUS STRESS PERIOD. CURRENT PERIOD IS:       3

 USING EXTINCTION WATER CONTENT FROM PREVIOUS STRESS PERIOD. CURRENT PERIOD IS:       3
 
 SOLVING FOR HEAD 
                                                   Max.-Head-Change                         Max.-Flux-Residual
  Residual-Control   Outer-Iter.   Inner-Iter.     Column Row Layer    Maximum-Head-Change  Column Row Layer    Maximum-Flux-Residual          L2-NORM 
          0                 1           2             4    8     1      -0.4677205604E-01       4    8    1        -0.2589944765E+01      0.7199079137E+01
          0                 2           2             4    8     1       0.4634659345E-02       4    8    1         0.2589926724E+00      0.7191615170E+00
          0                 3           2             4    8     1      -0.4133311419E-03       4    8    1        -0.2330936114E-01      0.6470692170E-01
          0                 4           1             4    8     1       0.3280740557E-04       4    8    1         0.1867080180E-02      0.5182611508E-02

    ------------------------------------------------
       NWT REQUIRED            4 OUTER ITERATIONS 
       AND A TOTAL OF          7 INNER ITERATIONS.
    ------------------------------------------------

 OUTPUT CONTROL FOR STRESS PERIOD    3   TIME STEP    1
    PRINT BUDGET
    SAVE BUDGET

            WELLS   PERIOD    3   STEP   1
 WELL      1   LAYER   1   ROW     6   COL     4   RATE    -4.00000    
 WELL      2   LAYER   1   ROW     6   COL     5   RATE    -4.00000    
 WELL      3   LAYER   1   ROW     7   COL     4   RATE    -4.00000    
 WELL      4   LAYER   1   ROW     7   COL     5   RATE    -4.00000    
 WELL      5   LAYER   1   ROW     8   COL     4   RATE    -4.00000    
 WELL      6   LAYER   1   ROW     8   COL     5   RATE    -4.00000    
 WELL      7   LAYER   1   ROW     9   COL     4   RATE    -4.00000    
 WELL      8   LAYER   1   ROW     9   COL     5   RATE    -4.00000    
 WELL      9   LAYER   1   ROW    10   COL     4   RATE    -4.00000    
 WELL     10   LAYER   1   ROW    10   COL     5   RATE    -4.00000    

  HEAD DEP BOUNDS   PERIOD    3   STEP     1
 BOUNDARY      1   LAYER   1   ROW    13   COL     1   RATE   -0.283683    
 BOUNDARY      2   LAYER   1   ROW    14   COL     9   RATE    0.300327    



 STREAM LISTING     PERIOD      3   STEP        1

 LAYER ROW COL. STREAM  RCH.  FLOW INTO     FLOW TO   FLOW OUT OF   OVRLND.     DIRECT     STREAM       STREAM     STREAM     STREAM   STREAMBED  STREAMBED
                SEG.NO.  NO.  STRM. RCH.    AQUIFER    STRM. RCH.    RUNOFF     PRECIP       ET          HEAD       DEPTH      WIDTH   CONDCTNC.   GRADIENT

   1    1    1     1     1    2.5000E+01  2.4674E-01   2.5446E+01  6.931E-01  0.000E+00  0.000E+00  1.09423E+03  1.183E+00  1.311E+01  5.898E-02  1.394E+00
   1    2    2     1     2    2.5446E+01  3.8786E-01   2.6137E+01  1.078E+00  0.000E+00  0.000E+00  1.08925E+03  1.192E+00  1.322E+01  9.253E-02  1.397E+00
   1    3    3     1     3    2.6137E+01  3.3630E-01   2.6724E+01  9.241E-01  0.000E+00  0.000E+00  1.08362E+03  1.201E+00  1.334E+01  8.005E-02  1.400E+00
   1    3    4     1     4    2.6724E+01  3.1418E-01   2.7265E+01  8.548E-01  0.000E+00  0.000E+00  1.07862E+03  1.209E+00  1.345E+01  7.464E-02  1.403E+00
   1    4    5     2     1    1.7265E+01  0.0000E+00   1.7927E+01  6.623E-01  0.000E+00  0.000E+00  1.07291E+03  9.781E-01  1.200E+01  0.000E+00  1.326E+00
   1    5    6     2     2    1.7927E+01  0.0000E+00   1.8437E+01  5.094E-01  0.000E+00  0.000E+00  1.06751E+03  9.975E-01  1.200E+01  0.000E+00  1.333E+00
   1    6    6     2     3    1.8437E+01  0.0000E+00   1.8946E+01  5.094E-01  0.000E+00  0.000E+00  1.06281E+03  1.014E+00  1.200E+01  0.000E+00  1.338E+00
   1    7    6     2     4    1.8946E+01  0.0000E+00   1.9455E+01  5.094E-01  0.000E+00  0.000E+00  1.05811E+03  1.031E+00  1.200E+01  0.000E+00  1.344E+00
   1    8    6     2     5    1.9455E+01  0.0000E+00   1.9965E+01  5.094E-01  0.000E+00  0.000E+00  1.05341E+03  1.047E+00  1.200E+01  0.000E+00  1.349E+00
   1    3    5     3     1    1.0000E+01  2.8252E-01   1.1990E+01  2.273E+00  0.000E+00  0.000E+00  1.07555E+03  1.909E+00  9.636E+00  7.227E-02  1.955E+00
   1    3    6     3     2    1.1990E+01  2.4905E-01   1.4014E+01  2.273E+00  0.000E+00  0.000E+00  1.07264E+03  1.727E+00  8.909E+00  6.682E-02  1.864E+00
   1    3    7     3     3    1.4014E+01  1.9718E-01   1.5862E+01  2.045E+00  0.000E+00  0.000E+00  1.06987E+03  1.555E+00  8.218E+00  5.547E-02  1.777E+00
   1    4    8     3     4    1.5862E+01  2.2567E-01   1.8364E+01  2.727E+00  0.000E+00  0.000E+00  1.06682E+03  1.364E+00  7.455E+00  6.709E-02  1.682E+00
   1    5    8     3     5    1.8364E+01  1.5790E-01   2.0479E+01  2.273E+00  0.000E+00  0.000E+00  1.06362E+03  1.164E+00  6.655E+00  4.991E-02  1.582E+00
   1    6    8     3     6    2.0479E+01  5.5980E-02   2.1332E+01  9.091E-01  0.000E+00  0.000E+00  1.06158E+03  1.036E+00  6.145E+00  1.844E-02  1.518E+00
   1    5   10     4     1    1.0000E+01  0.0000E+00   1.0483E+01  4.830E-01  0.000E+00  0.000E+00  1.07838E+03  6.477E-01  1.000E+01  0.000E+00  1.216E+00
   1    5    9     4     2    1.0483E+01  0.0000E+00   1.1449E+01  9.659E-01  0.000E+00  0.000E+00  1.07158E+03  6.748E-01  1.000E+01  0.000E+00  1.225E+00
   1    6    8     4     3    1.1449E+01  0.0000E+00   1.2125E+01  6.761E-01  0.000E+00  0.000E+00  1.06389E+03  7.047E-01  1.000E+01  0.000E+00  1.235E+00
   1    6    8     5     1    3.3457E+01  5.0435E-01   3.3779E+01  8.267E-01  0.000E+00  0.000E+00  1.05903E+03  1.027E+00  3.131E+01  1.253E-01  1.342E+00
   1    7    7     5     2    3.3779E+01  6.3508E-01   3.4177E+01  1.033E+00  0.000E+00  0.000E+00  1.05453E+03  1.030E+00  3.151E+01  1.576E-01  1.343E+00
   1    8    7     5     3    3.4177E+01  4.4759E-01   3.4453E+01  7.233E-01  0.000E+00  0.000E+00  1.05028E+03  1.034E+00  3.170E+01  1.110E-01  1.345E+00
   1    8    6     5     4    3.4453E+01  3.2122E-01   3.4648E+01  5.167E-01  0.000E+00  0.000E+00  1.04729E+03  1.037E+00  3.183E+01  7.958E-02  1.346E+00
   1    9    6     6     1    5.4613E+01  0.0000E+00   5.6250E+01  1.636E+00  0.000E+00  0.000E+00  1.04470E+03  1.969E+00  1.200E+01  0.000E+00  1.656E+00
   1   10    7     6     2    5.6250E+01  0.0000E+00   5.7886E+01  1.636E+00  0.000E+00  0.000E+00  1.04019E+03  2.004E+00  1.200E+01  0.000E+00  1.668E+00
   1   11    7     6     3    5.7886E+01  0.0000E+00   5.9522E+01  1.636E+00  0.000E+00  0.000E+00  1.03567E+03  2.038E+00  1.200E+01  0.000E+00  1.679E+00
   1   12    7     6     4    5.9522E+01  0.0000E+00   6.1159E+01  1.636E+00  0.000E+00  0.000E+00  1.03116E+03  2.072E+00  1.200E+01  0.000E+00  1.691E+00
   1   13    7     6     5    6.1159E+01  0.0000E+00   6.1813E+01  6.545E-01  0.000E+00  0.000E+00  1.02800E+03  2.095E+00  1.200E+01  0.000E+00  9.944E-01
   1   14    9     7     1    1.5000E+02  1.5527E+00   1.4999E+02  1.540E+00  0.000E+00  0.000E+00  1.03987E+03  2.291E+00  5.531E+01  5.595E-01  9.251E-01
   1   13    8     7     2    1.4999E+02  2.5266E+00   1.4916E+02  1.694E+00  0.000E+00  0.000E+00  1.03479E+03  2.289E+00  5.530E+01  6.153E-01  1.369E+00
   1   13    7     7     3    1.4916E+02  2.6178E+00   1.4808E+02  1.540E+00  0.000E+00  0.000E+00  1.02970E+03  2.284E+00  5.528E+01  5.591E-01  1.561E+00
   1   13    6     8     1    2.0989E+02  2.2554E+00   2.1583E+02  8.196E+00  0.000E+00  0.000E+00  1.02509E+03  3.212E+00  4.657E+01  4.746E-01  1.584E+00
   1   13    5     8     2    2.1583E+02  1.5594E+00   2.2247E+02  8.196E+00  0.000E+00  0.000E+00  1.01887E+03  3.247E+00  4.708E+01  4.798E-01  1.083E+00
   1   13    4     8     3    2.2247E+02  5.4856E-01   2.3012E+02  8.196E+00  0.000E+00  0.000E+00  1.01266E+03  3.286E+00  4.765E+01  4.856E-01  3.765E-01
   1   13    3     8     4    2.3012E+02 -3.4796E-01   2.3866E+02  8.196E+00  0.000E+00  0.000E+00  1.00646E+03  3.330E+00  4.829E+01  4.921E+00 -2.357E-02
   1   13    2     8     5    2.3866E+02 -5.6002E-01   2.4742E+02  8.196E+00  0.000E+00  0.000E+00  1.00025E+03  3.376E+00  4.895E+01  4.988E+00 -3.743E-02
   1   13    1     8     6    2.4742E+02 -5.3850E-01   2.5287E+02  4.918E+00  0.000E+00  0.000E+00  9.95287E+02  3.412E+00  4.948E+01  3.025E+00 -5.933E-02



 UBDSV3 SAVING "     NETRECHARGE" ON UNIT 100 AT TIME STEP     1, STRESS PERIOD   3
 UBDSV3 SAVING "    NETDISCHARGE" ON UNIT 101 AT TIME STEP     1, STRESS PERIOD   3
 UBDSV3 SAVING "           GW ET" ON UNIT  61 AT TIME STEP     1, STRESS PERIOD   3
 UBDSV3 SAVING "    UZF RECHARGE" ON UNIT  61 AT TIME STEP     1, STRESS PERIOD   3
 UBDSV3 SAVING " SURFACE LEAKAGE" ON UNIT  61 AT TIME STEP     1, STRESS PERIOD   3
 UBDSV3 SAVING "       HORT+DUNN" ON UNIT  61 AT TIME STEP     1, STRESS PERIOD   3
 UBDSV3 SAVING "  STORAGE CHANGE" ON UNIT  61 AT TIME STEP     1, STRESS PERIOD   3


UNSATURATED ZONE PACKAGE VOLUMETRIC BUDGET FOR  TIME STEP     1 STRESS PERIOD    3
  ------------------------------------------------------------------------------



     CUMULATIVE VOLUMES      L**3       RATES FOR THIS TIME STEP      L**3/T
     ------------------                 ------------------------

           IN:                                      IN:
           ---                                      ---
        INFILTRATION =    15482267.0713          INFILTRATION =           2.9000

          OUT:                                     OUT:
          ----                                     ----
              UZF ET =      694841.7718                UZF ET =           0.4722
        UZF RECHARGE =     7653158.3124          UZF RECHARGE =           0.0200

            IN - OUT =     7134266.9872              IN - OUT =           2.4078

          STORAGE:                                 STORAGE:
          --------                                 --------
      STORAGE CHANGE =     7134266.9885        STORAGE CHANGE =           2.4078

 PERCENT DISCREPANCY IS DIFFERENCE BETWEEN IN-OUT MINUS CHANGE IN STORAGE
 DIVIDED BY THE AVERAGE OF IN AND OUT TIMES 100

 PERCENT DISCREPANCY =           0.00     PERCENT DISCREPANCY =           0.00






1
  VOLUMETRIC BUDGET FOR ENTIRE MODEL AT END OF TIME STEP    1, STRESS PERIOD   3
  ------------------------------------------------------------------------------

     CUMULATIVE VOLUMES      L**3       RATES FOR THIS TIME STEP      L**3/T
     ------------------                 ------------------------

           IN:                                      IN:
           ---                                      ---
             STORAGE =    91501064.0000               STORAGE =          33.0253
       CONSTANT HEAD =           0.0000         CONSTANT HEAD =           0.0000
               WELLS =           0.0000                 WELLS =           0.0000
     HEAD DEP BOUNDS =     1601741.0000       HEAD DEP BOUNDS =           0.3003
      STREAM LEAKAGE =    77000688.0000        STREAM LEAKAGE =          15.4220
        UZF RECHARGE =     7653163.0000          UZF RECHARGE =       2.0009E-02
               GW ET =           0.0000                 GW ET =           0.0000
     SURFACE LEAKAGE =           0.0000       SURFACE LEAKAGE =           0.0000

            TOTAL IN =   177756656.0000              TOTAL IN =          48.7676

          OUT:                                     OUT:
          ----                                     ----
             STORAGE =      672981.9375               STORAGE =           0.8305
       CONSTANT HEAD =           0.0000         CONSTANT HEAD =           0.0000
               WELLS =   134708512.0000                 WELLS =          40.0000
     HEAD DEP BOUNDS =     1522413.2500       HEAD DEP BOUNDS =           0.2837
      STREAM LEAKAGE =    20689800.0000        STREAM LEAKAGE =           1.4465
        UZF RECHARGE =           0.0000          UZF RECHARGE =           0.0000
               GW ET =    20166004.0000                 GW ET =           6.2086
     SURFACE LEAKAGE =           0.0000       SURFACE LEAKAGE =           0.0000

           TOTAL OUT =   177759696.0000             TOTAL OUT =          48.7693

            IN - OUT =       -3040.0000              IN - OUT =      -1.6518E-03

 PERCENT DISCREPANCY =          -0.00     PERCENT DISCREPANCY =          -0.00






         TIME SUMMARY AT END OF TIME STEP    1 IN STRESS PERIOD    3
                    SECONDS     MINUTES      HOURS       DAYS        YEARS
                    -----------------------------------------------------------
   TIME STEP LENGTH  82713.      1378.6      22.976     0.95733     2.62102E-03
 STRESS PERIOD TIME  82713.      1378.6      22.976     0.95733     2.62102E-03
         TOTAL TIME 5.33871E+06  88979.      1483.0      61.791     0.16917    
1
 
 SOLVING FOR HEAD 
                                                   Max.-Head-Change                         Max.-Flux-Residual
  Residual-Control   Outer-Iter.   Inner-Iter.     Column Row Layer    Maximum-Head-Change  Column Row Layer    Maximum-Flux-Residual          L2-NORM 
          0                 1           2             4    8     1      -0.5112047158E-01       4    8    1        -0.2574978148E+01      0.7150086418E+01
          0                 2           2             4    8     1       0.5065540330E-02       4    8    1         0.2574957051E+00      0.7143775459E+00
          0                 3           2             4    8     1      -0.4517582940E-03       4    8    1        -0.2317463706E-01      0.6427890637E-01
          0                 4           1             4    8     1       0.3585748998E-04       4    8    1         0.1856288734E-02      0.5148385194E-02

    ------------------------------------------------
       NWT REQUIRED            4 OUTER ITERATIONS 
       AND A TOTAL OF          7 INNER ITERATIONS.
    ------------------------------------------------

 NO OUTPUT CONTROL FOR STRESS PERIOD    3   TIME STEP    2
 
 SOLVING FOR HEAD 
                                                   Max.-Head-Change                         Max.-Flux-Residual
  Residual-Control   Outer-Iter.   Inner-Iter.     Column Row Layer    Maximum-Head-Change  Column Row Layer    Maximum-Flux-Residual          L2-NORM 
          0                 1           2             4    8     1      -0.5583527723E-01       4    8    1        -0.2558529603E+01      0.7098002938E+01
          0                 2           2             4    8     1       0.5532725047E-02       4    8    1         0.2558504883E+00      0.7091878981E+00
          0                 3           2             4    8     1      -0.4934231283E-03       4    8    1        -0.2302657106E-01      0.6379450593E-01
          0                 4           1             4    8     1       0.3916455963E-04       4    8    1         0.1844428626E-02      0.5109360952E-02

    ------------------------------------------------
       NWT REQUIRED            4 OUTER ITERATIONS 
       AND A TOTAL OF          7 INNER ITERATIONS.
    ------------------------------------------------

 NO OUTPUT CONTROL FOR STRESS PERIOD    3   TIME STEP    3
 
 SOLVING FOR HEAD 
                                                   Max.-Head-Change                         Max.-Flux-Residual
  Residual-Control   Outer-Iter.   Inner-Iter.     Column Row Layer    Maximum-Head-Change  Column Row Layer    Maximum-Flux-Residual          L2-NORM 
          0                 1           2             4    8     1      -0.6093890567E-01       4    8    1        -0.2540448548E+01      0.7042716984E+01
          0                 2           2             4    8     1       0.6038435722E-02       4    8    1         0.2540419536E+00      0.7036323523E+00
          0                 3           2             4    8     1      -0.5385238353E-03       4    8    1        -0.2286380714E-01      0.6331165557E-01
          0                 4           1             4    8     1       0.4274434495E-04       4    8    1         0.1831391182E-02      0.5070983173E-02

    ------------------------------------------------
       NWT REQUIRED            4 OUTER ITERATIONS 
       AND A TOTAL OF          7 INNER ITERATIONS.
    ------------------------------------------------

 NO OUTPUT CONTROL FOR STRESS PERIOD    3   TIME STEP    4
 
 SOLVING FOR HEAD 
                                                   Max.-Head-Change                         Max.-Flux-Residual
  Residual-Control   Outer-Iter.   Inner-Iter.     Column Row Layer    Maximum-Head-Change  Column Row Layer    Maximum-Flux-Residual          L2-NORM 
          0                 1           2             4    8     1      -0.6645397080E-01       4    8    1        -0.2520603397E+01      0.6984089048E+01
          0                 2           2             4    8     1       0.6584912348E-02       4    8    1         0.2520569304E+00      0.6979101373E+00
          0                 3           2             4    8     1      -0.5872601920E-03       4    8    1        -0.2268516003E-01      0.6279977111E-01
          0                 4           1             4    8     1       0.4661270289E-04       4    8    1         0.1817081496E-02      0.5030029549E-02

    ------------------------------------------------
       NWT REQUIRED            4 OUTER ITERATIONS 
       AND A TOTAL OF          7 INNER ITERATIONS.
    ------------------------------------------------

 OUTPUT CONTROL FOR STRESS PERIOD    3   TIME STEP    5
    PRINT BUDGET
    SAVE BUDGET

            WELLS   PERIOD    3   STEP   5
 WELL      1   LAYER   1   ROW     6   COL     4   RATE    -4.00000    
 WELL      2   LAYER   1   ROW     6   COL     5   RATE    -4.00000    
 WELL      3   LAYER   1   ROW     7   COL     4   RATE    -4.00000    
 WELL      4   LAYER   1   ROW     7   COL     5   RATE    -4.00000    
 WELL      5   LAYER   1   ROW     8   COL     4   RATE    -4.00000    
 WELL      6   LAYER   1   ROW     8   COL     5   RATE    -4.00000    
 WELL      7   LAYER   1   ROW     9   COL     4   RATE    -4.00000    
 WELL      8   LAYER   1   ROW     9   COL     5   RATE    -4.00000    
 WELL      9   LAYER   1   ROW    10   COL     4   RATE    -4.00000    
 WELL     10   LAYER   1   ROW    10   COL     5   RATE    -4.00000    

  HEAD DEP BOUNDS   PERIOD    3   STEP     5
 BOUNDARY      1   LAYER   1   ROW    13   COL     1   RATE   -0.284161    
 BOUNDARY      2   LAYER   1   ROW    14   COL     9   RATE    0.300384    



 STREAM LISTING     PERIOD      3   STEP        5

 LAYER ROW COL. STREAM  RCH.  FLOW INTO     FLOW TO   FLOW OUT OF   OVRLND.     DIRECT     STREAM       STREAM     STREAM     STREAM   STREAMBED  STREAMBED
                SEG.NO.  NO.  STRM. RCH.    AQUIFER    STRM. RCH.    RUNOFF     PRECIP       ET          HEAD       DEPTH      WIDTH   CONDCTNC.   GRADIENT

   1    1    1     1     1    2.5000E+01  2.4674E-01   2.5446E+01  6.931E-01  0.000E+00  0.000E+00  1.09423E+03  1.183E+00  1.311E+01  5.898E-02  1.394E+00
   1    2    2     1     2    2.5446E+01  3.8786E-01   2.6137E+01  1.078E+00  0.000E+00  0.000E+00  1.08925E+03  1.192E+00  1.322E+01  9.253E-02  1.397E+00
   1    3    3     1     3    2.6137E+01  3.3630E-01   2.6724E+01  9.241E-01  0.000E+00  0.000E+00  1.08362E+03  1.201E+00  1.334E+01  8.005E-02  1.400E+00
   1    3    4     1     4    2.6724E+01  3.1418E-01   2.7265E+01  8.548E-01  0.000E+00  0.000E+00  1.07862E+03  1.209E+00  1.345E+01  7.464E-02  1.403E+00
   1    4    5     2     1    1.7265E+01  0.0000E+00   1.7927E+01  6.623E-01  0.000E+00  0.000E+00  1.07291E+03  9.781E-01  1.200E+01  0.000E+00  1.326E+00
   1    5    6     2     2    1.7927E+01  0.0000E+00   1.8437E+01  5.094E-01  0.000E+00  0.000E+00  1.06751E+03  9.975E-01  1.200E+01  0.000E+00  1.333E+00
   1    6    6     2     3    1.8437E+01  0.0000E+00   1.8946E+01  5.094E-01  0.000E+00  0.000E+00  1.06281E+03  1.014E+00  1.200E+01  0.000E+00  1.338E+00
   1    7    6     2     4    1.8946E+01  0.0000E+00   1.9455E+01  5.094E-01  0.000E+00  0.000E+00  1.05811E+03  1.031E+00  1.200E+01  0.000E+00  1.344E+00
   1    8    6     2     5    1.9455E+01  0.0000E+00   1.9965E+01  5.094E-01  0.000E+00  0.000E+00  1.05341E+03  1.047E+00  1.200E+01  0.000E+00  1.349E+00
   1    3    5     3     1    1.0000E+01  2.8252E-01   1.1990E+01  2.273E+00  0.000E+00  0.000E+00  1.07555E+03  1.909E+00  9.636E+00  7.227E-02  1.955E+00
   1    3    6     3     2    1.1990E+01  2.4905E-01   1.4014E+01  2.273E+00  0.000E+00  0.000E+00  1.07264E+03  1.727E+00  8.909E+00  6.682E-02  1.864E+00
   1    3    7     3     3    1.4014E+01  1.9718E-01   1.5862E+01  2.045E+00  0.000E+00  0.000E+00  1.06987E+03  1.555E+00  8.218E+00  5.547E-02  1.777E+00
   1    4    8     3     4    1.5862E+01  2.2567E-01   1.8364E+01  2.727E+00  0.000E+00  0.000E+00  1.06682E+03  1.364E+00  7.455E+00  6.709E-02  1.682E+00
   1    5    8     3     5    1.8364E+01  1.5790E-01   2.0479E+01  2.273E+00  0.000E+00  0.000E+00  1.06362E+03  1.164E+00  6.655E+00  4.991E-02  1.582E+00
   1    6    8     3     6    2.0479E+01  5.5980E-02   2.1332E+01  9.091E-01  0.000E+00  0.000E+00  1.06158E+03  1.036E+00  6.145E+00  1.844E-02  1.518E+00
   1    5   10     4     1    1.0000E+01  0.0000E+00   1.0483E+01  4.830E-01  0.000E+00  0.000E+00  1.07838E+03  6.477E-01  1.000E+01  0.000E+00  1.216E+00
   1    5    9     4     2    1.0483E+01  0.0000E+00   1.1449E+01  9.659E-01  0.000E+00  0.000E+00  1.07158E+03  6.748E-01  1.000E+01  0.000E+00  1.225E+00
   1    6    8     4     3    1.1449E+01  0.0000E+00   1.2125E+01  6.761E-01  0.000E+00  0.000E+00  1.06389E+03  7.047E-01  1.000E+01  0.000E+00  1.235E+00
   1    6    8     5     1    3.3457E+01  5.0435E-01   3.3779E+01  8.267E-01  0.000E+00  0.000E+00  1.05903E+03  1.027E+00  3.131E+01  1.253E-01  1.342E+00
   1    7    7     5     2    3.3779E+01  6.3508E-01   3.4177E+01  1.033E+00  0.000E+00  0.000E+00  1.05453E+03  1.030E+00  3.151E+01  1.576E-01  1.343E+00
   1    8    7     5     3    3.4177E+01  4.4759E-01   3.4453E+01  7.233E-01  0.000E+00  0.000E+00  1.05028E+03  1.034E+00  3.170E+01  1.110E-01  1.345E+00
   1    8    6     5     4    3.4453E+01  3.2122E-01   3.4648E+01  5.167E-01  0.000E+00  0.000E+00  1.04729E+03  1.037E+00  3.183E+01  7.958E-02  1.346E+00
   1    9    6     6     1    5.4613E+01  0.0000E+00   5.6250E+01  1.636E+00  0.000E+00  0.000E+00  1.04470E+03  1.969E+00  1.200E+01  0.000E+00  1.656E+00
   1   10    7     6     2    5.6250E+01  0.0000E+00   5.7886E+01  1.636E+00  0.000E+00  0.000E+00  1.04019E+03  2.004E+00  1.200E+01  0.000E+00  1.668E+00
   1   11    7     6     3    5.7886E+01  0.0000E+00   5.9522E+01  1.636E+00  0.000E+00  0.000E+00  1.03567E+03  2.038E+00  1.200E+01  0.000E+00  1.679E+00
   1   12    7     6     4    5.9522E+01  0.0000E+00   6.1159E+01  1.636E+00  0.000E+00  0.000E+00  1.03116E+03  2.072E+00  1.200E+01  0.000E+00  1.691E+00
   1   13    7     6     5    6.1159E+01  0.0000E+00   6.1813E+01  6.545E-01  0.000E+00  0.000E+00  1.02800E+03  2.095E+00  1.200E+01  0.000E+00  9.946E-01
   1   14    9     7     1    1.5000E+02  1.5535E+00   1.4999E+02  1.540E+00  0.000E+00  0.000E+00  1.03987E+03  2.291E+00  5.531E+01  5.595E-01  9.256E-01
   1   13    8     7     2    1.4999E+02  2.5273E+00   1.4915E+02  1.694E+00  0.000E+00  0.000E+00  1.03479E+03  2.289E+00  5.530E+01  6.153E-01  1.369E+00
   1   13    7     7     3    1.4915E+02  2.6182E+00   1.4808E+02  1.540E+00  0.000E+00  0.000E+00  1.02970E+03  2.284E+00  5.528E+01  5.591E-01  1.561E+00
   1   13    6     8     1    2.0989E+02  2.2559E+00   2.1583E+02  8.196E+00  0.000E+00  0.000E+00  1.02509E+03  3.212E+00  4.657E+01  4.746E-01  1.584E+00
   1   13    5     8     2    2.1583E+02  1.5706E+00   2.2246E+02  8.196E+00  0.000E+00  0.000E+00  1.01887E+03  3.247E+00  4.708E+01  4.798E-01  1.091E+00
   1   13    4     8     3    2.2246E+02  5.6046E-01   2.3009E+02  8.196E+00  0.000E+00  0.000E+00  1.01266E+03  3.286E+00  4.765E+01  4.856E-01  3.847E-01
   1   13    3     8     4    2.3009E+02 -4.2646E-01   2.3871E+02  8.196E+00  0.000E+00  0.000E+00  1.00646E+03  3.330E+00  4.829E+01  4.921E+00 -2.889E-02
   1   13    2     8     5    2.3871E+02 -6.6897E-01   2.4758E+02  8.196E+00  0.000E+00  0.000E+00  1.00025E+03  3.376E+00  4.895E+01  4.989E+00 -4.470E-02
   1   13    1     8     6    2.4758E+02 -5.7395E-01   2.5307E+02  4.918E+00  0.000E+00  0.000E+00  9.95288E+02  3.413E+00  4.949E+01  3.026E+00 -6.322E-02



 UBDSV3 SAVING "     NETRECHARGE" ON UNIT 100 AT TIME STEP     5, STRESS PERIOD   3
 UBDSV3 SAVING "    NETDISCHARGE" ON UNIT 101 AT TIME STEP     5, STRESS PERIOD   3
 UBDSV3 SAVING "           GW ET" ON UNIT  61 AT TIME STEP     5, STRESS PERIOD   3
 UBDSV3 SAVING "    UZF RECHARGE" ON UNIT  61 AT TIME STEP     5, STRESS PERIOD   3
 UBDSV3 SAVING " SURFACE LEAKAGE" ON UNIT  61 AT TIME STEP     5, STRESS PERIOD   3
 UBDSV3 SAVING "       HORT+DUNN" ON UNIT  61 AT TIME STEP     5, STRESS PERIOD   3
 UBDSV3 SAVING "  STORAGE CHANGE" ON UNIT  61 AT TIME STEP     5, STRESS PERIOD   3


UNSATURATED ZONE PACKAGE VOLUMETRIC BUDGET FOR  TIME STEP     5 STRESS PERIOD    3
  ------------------------------------------------------------------------------



     CUMULATIVE VOLUMES      L**3       RATES FOR THIS TIME STEP      L**3/T
     ------------------                 ------------------------

           IN:                                      IN:
           ---                                      ---
        INFILTRATION =    16706816.7383          INFILTRATION =           2.9000

          OUT:                                     OUT:
          ----                                     ----
              UZF ET =      910873.3582                UZF ET =           0.5349
        UZF RECHARGE =     7661804.5864          UZF RECHARGE =           0.0207

            IN - OUT =     8134138.7937              IN - OUT =           2.3444

          STORAGE:                                 STORAGE:
          --------                                 --------
      STORAGE CHANGE =     8134138.7850        STORAGE CHANGE =           2.3444

 PERCENT DISCREPANCY IS DIFFERENCE BETWEEN IN-OUT MINUS CHANGE IN STORAGE
 DIVIDED BY THE AVERAGE OF IN AND OUT TIMES 100

 PERCENT DISCREPANCY =           0.00     PERCENT DISCREPANCY =           0.00






1
  VOLUMETRIC BUDGET FOR ENTIRE MODEL AT END OF TIME STEP    5, STRESS PERIOD   3
  ------------------------------------------------------------------------------

     CUMULATIVE VOLUMES      L**3       RATES FOR THIS TIME STEP      L**3/T
     ------------------                 ------------------------

           IN:                                      IN:
           ---                                      ---
             STORAGE =   105422648.0000               STORAGE =          32.9382
       CONSTANT HEAD =           0.0000         CONSTANT HEAD =           0.0000
               WELLS =           0.0000                 WELLS =           0.0000
     HEAD DEP BOUNDS =     1728572.0000       HEAD DEP BOUNDS =           0.3004
      STREAM LEAKAGE =    83519576.0000        STREAM LEAKAGE =          15.4475
        UZF RECHARGE =     7661809.0000          UZF RECHARGE =       2.0745E-02
               GW ET =           0.0000                 GW ET =           0.0000
     SURFACE LEAKAGE =           0.0000       SURFACE LEAKAGE =           0.0000

            TOTAL IN =   198332592.0000              TOTAL IN =          48.7069

          OUT:                                     OUT:
          ----                                     ----
             STORAGE =      946342.2500               STORAGE =           0.5519
       CONSTANT HEAD =           0.0000         CONSTANT HEAD =           0.0000
               WELLS =   151598864.0000                 WELLS =          40.0000
     HEAD DEP BOUNDS =     1642330.5000       HEAD DEP BOUNDS =           0.2842
      STREAM LEAKAGE =    21362658.0000        STREAM LEAKAGE =           1.6694
        UZF RECHARGE =           0.0000          UZF RECHARGE =           0.0000
               GW ET =    22786168.0000                 GW ET =           6.2031
     SURFACE LEAKAGE =           0.0000       SURFACE LEAKAGE =           0.0000

           TOTAL OUT =   198336352.0000             TOTAL OUT =          48.7085

            IN - OUT =       -3760.0000              IN - OUT =      -1.6594E-03

 PERCENT DISCREPANCY =          -0.00     PERCENT DISCREPANCY =          -0.00






         TIME SUMMARY AT END OF TIME STEP    5 IN STRESS PERIOD    3
                    SECONDS     MINUTES      HOURS       DAYS        YEARS
                    -----------------------------------------------------------
   TIME STEP LENGTH 1.21100E+05  2018.3      33.639      1.4016     3.83743E-03
 STRESS PERIOD TIME 5.04972E+05  8416.2      140.27      5.8446     1.60016E-02
         TOTAL TIME 5.76097E+06  96016.      1600.3      66.678     0.18255    
1
 
 SOLVING FOR HEAD 
                                                   Max.-Head-Change                         Max.-Flux-Residual
  Residual-Control   Outer-Iter.   Inner-Iter.     Column Row Layer    Maximum-Head-Change  Column Row Layer    Maximum-Flux-Residual          L2-NORM 
          0                 1           2             4    8     1      -0.7240188903E-01       4    8    1        -0.2498836997E+01      0.6922046127E+01
          0                 2           2             4    8     1       0.7174276030E-02       4    8    1         0.2498796895E+00      0.6918242265E+00
          0                 3           2             4    8     1      -0.6398213750E-03       4    8    1        -0.2248921424E-01      0.6225472850E-01
          0                 4           1             4    8     1       0.5078465043E-04       4    8    1         0.1801386215E-02      0.4986408584E-02

    ------------------------------------------------
       NWT REQUIRED            4 OUTER ITERATIONS 
       AND A TOTAL OF          7 INNER ITERATIONS.
    ------------------------------------------------

 NO OUTPUT CONTROL FOR STRESS PERIOD    3   TIME STEP    6
 
 SOLVING FOR HEAD 
                                                   Max.-Head-Change                         Max.-Flux-Residual
  Residual-Control   Outer-Iter.   Inner-Iter.     Column Row Layer    Maximum-Head-Change  Column Row Layer    Maximum-Flux-Residual          L2-NORM 
          0                 1           2             4    8     1      -0.7880281977E-01       4    8    1        -0.2474991700E+01      0.6856484304E+01
          0                 2           2             4    8     1       0.7808523028E-02       4    8    1         0.2474944506E+00      0.6853652432E+00
          0                 3           2             4    8     1      -0.6963854266E-03       4    8    1        -0.2227454966E-01      0.6167571424E-01
          0                 4           1             4    8     1       0.5527431634E-04       4    8    1         0.1784191503E-02      0.4940104804E-02

    ------------------------------------------------
       NWT REQUIRED            4 OUTER ITERATIONS 
       AND A TOTAL OF          7 INNER ITERATIONS.
    ------------------------------------------------

 NO OUTPUT CONTROL FOR STRESS PERIOD    3   TIME STEP    7
 
 SOLVING FOR HEAD 
                                                   Max.-Head-Change                         Max.-Flux-Residual
  Residual-Control   Outer-Iter.   Inner-Iter.     Column Row Layer    Maximum-Head-Change  Column Row Layer    Maximum-Flux-Residual          L2-NORM 
          0                 1           2             4    8     1      -0.8567515359E-01       4    8    1        -0.2448912761E+01      0.6787301401E+01
          0                 2           2             4    8     1       0.8489473983E-02       4    8    1         0.2448857218E+00      0.6785230017E+00
          0                 3           2             4    8     1      -0.7571147486E-03       4    8    1        -0.2203977224E-01      0.6106428466E-01
          0                 4           1             4    8     1       0.6009459335E-04       4    8    1         0.1765385769E-02      0.4891111933E-02

    ------------------------------------------------
       NWT REQUIRED            4 OUTER ITERATIONS 
       AND A TOTAL OF          7 INNER ITERATIONS.
    ------------------------------------------------

 NO OUTPUT CONTROL FOR STRESS PERIOD    3   TIME STEP    8
 
 SOLVING FOR HEAD 
                                                   Max.-Head-Change                         Max.-Flux-Residual
  Residual-Control   Outer-Iter.   Inner-Iter.     Column Row Layer    Maximum-Head-Change  Column Row Layer    Maximum-Flux-Residual          L2-NORM 
          0                 1           2             4    8     1      -0.9303441270E-01       4    8    1        -0.2420435525E+01      0.6714428067E+01
          0                 2           2             4    8     1       0.9218664254E-02       4    8    1         0.2420370186E+00      0.6712296657E+00
          0                 3           2             4    8     1      -0.8221462518E-03       4    8    1        -0.2178339854E-01      0.6040685922E-01
          0                 4           1             4    8     1       0.6525634677E-04       4    8    1         0.1744850153E-02      0.4838501204E-02

    ------------------------------------------------
       NWT REQUIRED            4 OUTER ITERATIONS 
       AND A TOTAL OF          7 INNER ITERATIONS.
    ------------------------------------------------

 NO OUTPUT CONTROL FOR STRESS PERIOD    3   TIME STEP    9
 
 SOLVING FOR HEAD 
                                                   Max.-Head-Change                         Max.-Flux-Residual
  Residual-Control   Outer-Iter.   Inner-Iter.     Column Row Layer    Maximum-Head-Change  Column Row Layer    Maximum-Flux-Residual          L2-NORM 
          0                 1           2             4    8     1      -0.1008928697E+00       4    8    1        -0.2389402186E+01      0.6637867235E+01
          0                 2           2             4    8     1       0.9997309106E-02       4    8    1         0.2389325405E+00      0.6636861632E+00
          0                 3           2             4    8     1      -0.8915883793E-03       4    8    1        -0.2150400671E-01      0.5972910639E-01
          0                 4           1             4    8     1       0.7076818478E-04       4    8    1         0.1722470781E-02      0.4784227216E-02

    ------------------------------------------------
       NWT REQUIRED            4 OUTER ITERATIONS 
       AND A TOTAL OF          7 INNER ITERATIONS.
    ------------------------------------------------

 OUTPUT CONTROL FOR STRESS PERIOD    3   TIME STEP   10
    PRINT BUDGET
    SAVE BUDGET

            WELLS   PERIOD    3   STEP  10
 WELL      1   LAYER   1   ROW     6   COL     4   RATE    -4.00000    
 WELL      2   LAYER   1   ROW     6   COL     5   RATE    -4.00000    
 WELL      3   LAYER   1   ROW     7   COL     4   RATE    -4.00000    
 WELL      4   LAYER   1   ROW     7   COL     5   RATE    -4.00000    
 WELL      5   LAYER   1   ROW     8   COL     4   RATE    -4.00000    
 WELL      6   LAYER   1   ROW     8   COL     5   RATE    -4.00000    
 WELL      7   LAYER   1   ROW     9   COL     4   RATE    -4.00000    
 WELL      8   LAYER   1   ROW     9   COL     5   RATE    -4.00000    
 WELL      9   LAYER   1   ROW    10   COL     4   RATE    -4.00000    
 WELL     10   LAYER   1   ROW    10   COL     5   RATE    -4.00000    

  HEAD DEP BOUNDS   PERIOD    3   STEP    10
 BOUNDARY      1   LAYER   1   ROW    13   COL     1   RATE   -0.284821    
 BOUNDARY      2   LAYER   1   ROW    14   COL     9   RATE    0.300490    



 STREAM LISTING     PERIOD      3   STEP       10

 LAYER ROW COL. STREAM  RCH.  FLOW INTO     FLOW TO   FLOW OUT OF   OVRLND.     DIRECT     STREAM       STREAM     STREAM     STREAM   STREAMBED  STREAMBED
                SEG.NO.  NO.  STRM. RCH.    AQUIFER    STRM. RCH.    RUNOFF     PRECIP       ET          HEAD       DEPTH      WIDTH   CONDCTNC.   GRADIENT

   1    1    1     1     1    2.5000E+01  2.4674E-01   2.5446E+01  6.931E-01  0.000E+00  0.000E+00  1.09423E+03  1.183E+00  1.311E+01  5.898E-02  1.394E+00
   1    2    2     1     2    2.5446E+01  3.8786E-01   2.6137E+01  1.078E+00  0.000E+00  0.000E+00  1.08925E+03  1.192E+00  1.322E+01  9.253E-02  1.397E+00
   1    3    3     1     3    2.6137E+01  3.3630E-01   2.6724E+01  9.241E-01  0.000E+00  0.000E+00  1.08362E+03  1.201E+00  1.334E+01  8.005E-02  1.400E+00
   1    3    4     1     4    2.6724E+01  3.1418E-01   2.7265E+01  8.548E-01  0.000E+00  0.000E+00  1.07862E+03  1.209E+00  1.345E+01  7.464E-02  1.403E+00
   1    4    5     2     1    1.7265E+01  0.0000E+00   1.7927E+01  6.623E-01  0.000E+00  0.000E+00  1.07291E+03  9.781E-01  1.200E+01  0.000E+00  1.326E+00
   1    5    6     2     2    1.7927E+01  0.0000E+00   1.8437E+01  5.094E-01  0.000E+00  0.000E+00  1.06751E+03  9.975E-01  1.200E+01  0.000E+00  1.333E+00
   1    6    6     2     3    1.8437E+01  0.0000E+00   1.8946E+01  5.094E-01  0.000E+00  0.000E+00  1.06281E+03  1.014E+00  1.200E+01  0.000E+00  1.338E+00
   1    7    6     2     4    1.8946E+01  0.0000E+00   1.9455E+01  5.094E-01  0.000E+00  0.000E+00  1.05811E+03  1.031E+00  1.200E+01  0.000E+00  1.344E+00
   1    8    6     2     5    1.9455E+01  0.0000E+00   1.9965E+01  5.094E-01  0.000E+00  0.000E+00  1.05341E+03  1.047E+00  1.200E+01  0.000E+00  1.349E+00
   1    3    5     3     1    1.0000E+01  2.8252E-01   1.1990E+01  2.273E+00  0.000E+00  0.000E+00  1.07555E+03  1.909E+00  9.636E+00  7.227E-02  1.955E+00
   1    3    6     3     2    1.1990E+01  2.4905E-01   1.4014E+01  2.273E+00  0.000E+00  0.000E+00  1.07264E+03  1.727E+00  8.909E+00  6.682E-02  1.864E+00
   1    3    7     3     3    1.4014E+01  1.9718E-01   1.5862E+01  2.045E+00  0.000E+00  0.000E+00  1.06987E+03  1.555E+00  8.218E+00  5.547E-02  1.777E+00
   1    4    8     3     4    1.5862E+01  2.2567E-01   1.8364E+01  2.727E+00  0.000E+00  0.000E+00  1.06682E+03  1.364E+00  7.455E+00  6.709E-02  1.682E+00
   1    5    8     3     5    1.8364E+01  1.5790E-01   2.0479E+01  2.273E+00  0.000E+00  0.000E+00  1.06362E+03  1.164E+00  6.655E+00  4.991E-02  1.582E+00
   1    6    8     3     6    2.0479E+01  5.5980E-02   2.1332E+01  9.091E-01  0.000E+00  0.000E+00  1.06158E+03  1.036E+00  6.145E+00  1.844E-02  1.518E+00
   1    5   10     4     1    1.0000E+01  0.0000E+00   1.0483E+01  4.830E-01  0.000E+00  0.000E+00  1.07838E+03  6.477E-01  1.000E+01  0.000E+00  1.216E+00
   1    5    9     4     2    1.0483E+01  0.0000E+00   1.1449E+01  9.659E-01  0.000E+00  0.000E+00  1.07158E+03  6.748E-01  1.000E+01  0.000E+00  1.225E+00
   1    6    8     4     3    1.1449E+01  0.0000E+00   1.2125E+01  6.761E-01  0.000E+00  0.000E+00  1.06389E+03  7.047E-01  1.000E+01  0.000E+00  1.235E+00
   1    6    8     5     1    3.3457E+01  5.0435E-01   3.3779E+01  8.267E-01  0.000E+00  0.000E+00  1.05903E+03  1.027E+00  3.131E+01  1.253E-01  1.342E+00
   1    7    7     5     2    3.3779E+01  6.3508E-01   3.4177E+01  1.033E+00  0.000E+00  0.000E+00  1.05453E+03  1.030E+00  3.151E+01  1.576E-01  1.343E+00
   1    8    7     5     3    3.4177E+01  4.4759E-01   3.4453E+01  7.233E-01  0.000E+00  0.000E+00  1.05028E+03  1.034E+00  3.170E+01  1.110E-01  1.345E+00
   1    8    6     5     4    3.4453E+01  3.2122E-01   3.4648E+01  5.167E-01  0.000E+00  0.000E+00  1.04729E+03  1.037E+00  3.183E+01  7.958E-02  1.346E+00
   1    9    6     6     1    5.4613E+01  0.0000E+00   5.6250E+01  1.636E+00  0.000E+00  0.000E+00  1.04470E+03  1.969E+00  1.200E+01  0.000E+00  1.656E+00
   1   10    7     6     2    5.6250E+01  0.0000E+00   5.7886E+01  1.636E+00  0.000E+00  0.000E+00  1.04019E+03  2.004E+00  1.200E+01  0.000E+00  1.668E+00
   1   11    7     6     3    5.7886E+01  0.0000E+00   5.9522E+01  1.636E+00  0.000E+00  0.000E+00  1.03567E+03  2.038E+00  1.200E+01  0.000E+00  1.679E+00
   1   12    7     6     4    5.9522E+01  0.0000E+00   6.1159E+01  1.636E+00  0.000E+00  0.000E+00  1.03116E+03  2.072E+00  1.200E+01  0.000E+00  1.691E+00
   1   13    7     6     5    6.1159E+01  0.0000E+00   6.1813E+01  6.545E-01  0.000E+00  0.000E+00  1.02800E+03  2.095E+00  1.200E+01  0.000E+00  9.953E-01
   1   14    9     7     1    1.5000E+02  1.5551E+00   1.4999E+02  1.540E+00  0.000E+00  0.000E+00  1.03987E+03  2.291E+00  5.531E+01  5.595E-01  9.265E-01
   1   13    8     7     2    1.4999E+02  2.5286E+00   1.4915E+02  1.694E+00  0.000E+00  0.000E+00  1.03479E+03  2.289E+00  5.530E+01  6.153E-01  1.370E+00
   1   13    7     7     3    1.4915E+02  2.6193E+00   1.4807E+02  1.540E+00  0.000E+00  0.000E+00  1.02970E+03  2.284E+00  5.528E+01  5.591E-01  1.562E+00
   1   13    6     8     1    2.0989E+02  2.2585E+00   2.1582E+02  8.196E+00  0.000E+00  0.000E+00  1.02509E+03  3.212E+00  4.657E+01  4.746E-01  1.586E+00
   1   13    5     8     2    2.1582E+02  1.5894E+00   2.2243E+02  8.196E+00  0.000E+00  0.000E+00  1.01887E+03  3.247E+00  4.708E+01  4.798E-01  1.104E+00
   1   13    4     8     3    2.2243E+02  5.7959E-01   2.3005E+02  8.196E+00  0.000E+00  0.000E+00  1.01266E+03  3.286E+00  4.765E+01  4.856E-01  3.979E-01
   1   13    3     8     4    2.3005E+02 -4.8916E-01   2.3873E+02  8.196E+00  0.000E+00  0.000E+00  1.00646E+03  3.330E+00  4.829E+01  4.921E+00 -3.314E-02
   1   13    2     8     5    2.3873E+02 -7.7949E-01   2.4771E+02  8.196E+00  0.000E+00  0.000E+00  1.00025E+03  3.377E+00  4.896E+01  4.989E+00 -5.208E-02
   1   13    1     8     6    2.4771E+02 -6.2428E-01   2.5325E+02  4.918E+00  0.000E+00  0.000E+00  9.95289E+02  3.414E+00  4.950E+01  3.027E+00 -6.875E-02



 UBDSV3 SAVING "     NETRECHARGE" ON UNIT 100 AT TIME STEP    10, STRESS PERIOD   3
 UBDSV3 SAVING "    NETDISCHARGE" ON UNIT 101 AT TIME STEP    10, STRESS PERIOD   3
 UBDSV3 SAVING "           GW ET" ON UNIT  61 AT TIME STEP    10, STRESS PERIOD   3
 UBDSV3 SAVING "    UZF RECHARGE" ON UNIT  61 AT TIME STEP    10, STRESS PERIOD   3
 UBDSV3 SAVING " SURFACE LEAKAGE" ON UNIT  61 AT TIME STEP    10, STRESS PERIOD   3
 UBDSV3 SAVING "       HORT+DUNN" ON UNIT  61 AT TIME STEP    10, STRESS PERIOD   3
 UBDSV3 SAVING "  STORAGE CHANGE" ON UNIT  61 AT TIME STEP    10, STRESS PERIOD   3


UNSATURATED ZONE PACKAGE VOLUMETRIC BUDGET FOR  TIME STEP    10 STRESS PERIOD    3
  ------------------------------------------------------------------------------



     CUMULATIVE VOLUMES      L**3       RATES FOR THIS TIME STEP      L**3/T
     ------------------                 ------------------------

           IN:                                      IN:
           ---                                      ---
        INFILTRATION =    19065276.0059          INFILTRATION =           2.9000

          OUT:                                     OUT:
          ----                                     ----
              UZF ET =     1399581.9092                UZF ET =           0.6414
        UZF RECHARGE =     7671572.9001          UZF RECHARGE =           0.0076

            IN - OUT =     9994121.1966              IN - OUT =           2.2509

          STORAGE:                                 STORAGE:
          --------                                 --------
      STORAGE CHANGE =     9994121.1573        STORAGE CHANGE =           2.2509

 PERCENT DISCREPANCY IS DIFFERENCE BETWEEN IN-OUT MINUS CHANGE IN STORAGE
 DIVIDED BY THE AVERAGE OF IN AND OUT TIMES 100

 PERCENT DISCREPANCY =           0.00     PERCENT DISCREPANCY =           0.00






1
  VOLUMETRIC BUDGET FOR ENTIRE MODEL AT END OF TIME STEP   10, STRESS PERIOD   3
  ------------------------------------------------------------------------------

     CUMULATIVE VOLUMES      L**3       RATES FOR THIS TIME STEP      L**3/T
     ------------------                 ------------------------

           IN:                                      IN:
           ---                                      ---
             STORAGE =   132145160.0000               STORAGE =          32.8105
       CONSTANT HEAD =           0.0000         CONSTANT HEAD =           0.0000
               WELLS =           0.0000                 WELLS =           0.0000
     HEAD DEP BOUNDS =     1972915.2500       HEAD DEP BOUNDS =           0.3005
      STREAM LEAKAGE =    96104560.0000        STREAM LEAKAGE =          15.4921
        UZF RECHARGE =     7671577.5000          UZF RECHARGE =       7.6423E-03
               GW ET =           0.0000                 GW ET =           0.0000
     SURFACE LEAKAGE =           0.0000       SURFACE LEAKAGE =           0.0000

            TOTAL IN =   237894208.0000              TOTAL IN =          48.6107

          OUT:                                     OUT:
          ----                                     ----
             STORAGE =     1228050.2500               STORAGE =           0.2409
       CONSTANT HEAD =           0.0000         CONSTANT HEAD =           0.0000
               WELLS =   184129344.0000                 WELLS =          40.0000
     HEAD DEP BOUNDS =     1873769.5000       HEAD DEP BOUNDS =           0.2848
      STREAM LEAKAGE =    22841970.0000        STREAM LEAKAGE =           1.8929
        UZF RECHARGE =           0.0000          UZF RECHARGE =           0.0000
               GW ET =    27826186.0000                 GW ET =           6.1937
     SURFACE LEAKAGE =           0.0000       SURFACE LEAKAGE =           0.0000

           TOTAL OUT =   237899328.0000             TOTAL OUT =          48.6123

            IN - OUT =       -5120.0000              IN - OUT =      -1.6479E-03

 PERCENT DISCREPANCY =          -0.00     PERCENT DISCREPANCY =          -0.00






         TIME SUMMARY AT END OF TIME STEP   10 IN STRESS PERIOD    3
                    SECONDS     MINUTES      HOURS       DAYS        YEARS
                    -----------------------------------------------------------
   TIME STEP LENGTH 1.95033E+05  3250.6      54.176      2.2573     6.18023E-03
 STRESS PERIOD TIME 1.31823E+06  21971.      366.18      15.257     4.17723E-02
         TOTAL TIME 6.57423E+06 1.09571E+05  1826.2      76.091     0.20832    
1
 
 SOLVING FOR HEAD 
                                                   Max.-Head-Change                         Max.-Flux-Residual
  Residual-Control   Outer-Iter.   Inner-Iter.     Column Row Layer    Maximum-Head-Change  Column Row Layer    Maximum-Flux-Residual          L2-NORM 
          0                 1           2             4    8     1      -0.1092589090E+00       4    8    1        -0.2355667240E+01      0.6557554668E+01
          0                 2           2             4    8     1       0.1082623440E-01       4    8    1         0.2355577163E+00      0.6556866810E+00
          0                 3           2             4    8     1      -0.9655148012E-03       4    8    1        -0.2120028554E-01      0.5901003035E-01
          0                 4           1             4    8     1       0.7663595356E-04       4    8    1         0.1698142592E-02      0.4726627819E-02

    ------------------------------------------------
       NWT REQUIRED            4 OUTER ITERATIONS 
       AND A TOTAL OF          7 INNER ITERATIONS.
    ------------------------------------------------

 NO OUTPUT CONTROL FOR STRESS PERIOD    3   TIME STEP   11
 
 SOLVING FOR HEAD 
                                                   Max.-Head-Change                         Max.-Flux-Residual
  Residual-Control   Outer-Iter.   Inner-Iter.     Column Row Layer    Maximum-Head-Change  Column Row Layer    Maximum-Flux-Residual          L2-NORM 
          0                 1           2             4    8     1      -0.1181357469E+00       4    8    1        -0.2319088795E+01      0.6473481913E+01
          0                 2           2             4    8     1       0.1170575555E-01       4    8    1         0.2318983362E+00      0.6473007448E+00
          0                 3           2             4    8     1      -0.1043953689E-02       4    8    1        -0.2087095636E-01      0.5825593905E-01
          0                 4           1             4    8     1       0.8286189054E-04       4    8    1         0.1671763214E-02      0.4666253427E-02

    ------------------------------------------------
       NWT REQUIRED            4 OUTER ITERATIONS 
       AND A TOTAL OF          7 INNER ITERATIONS.
    ------------------------------------------------

 NO OUTPUT CONTROL FOR STRESS PERIOD    3   TIME STEP   12
 
 SOLVING FOR HEAD 
                                                   Max.-Head-Change                         Max.-Flux-Residual
  Residual-Control   Outer-Iter.   Inner-Iter.     Column Row Layer    Maximum-Head-Change  Column Row Layer    Maximum-Flux-Residual          L2-NORM 
          0                 1           2             4    8     1      -0.1275214896E+00       4    8    1        -0.2279552263E+01      0.6385699236E+01
          0                 2           2             4    8     1       0.1263568041E-01       4    8    1         0.2279429224E+00      0.6385354785E+00
          0                 3           2             4    8     1      -0.1126887948E-02       4    8    1        -0.2051498637E-01      0.5746753947E-01
          0                 4           1             4    8     1       0.8944463609E-04       4    8    1         0.1643249865E-02      0.4603108709E-02

    ------------------------------------------------
       NWT REQUIRED            4 OUTER ITERATIONS 
       AND A TOTAL OF          7 INNER ITERATIONS.
    ------------------------------------------------

 NO OUTPUT CONTROL FOR STRESS PERIOD    3   TIME STEP   13
 
 SOLVING FOR HEAD 
                                                   Max.-Head-Change                         Max.-Flux-Residual
  Residual-Control   Outer-Iter.   Inner-Iter.     Column Row Layer    Maximum-Head-Change  Column Row Layer    Maximum-Flux-Residual          L2-NORM 
          0                 1           2             4    8     1      -0.1374079388E+00       4    8    1        -0.2236962200E+01      0.6294290181E+01
          0                 2           2             4    8     1       0.1361519132E-01       4    8    1         0.2236819143E+00      0.6294013431E+00
          0                 3           2             4    8     1      -0.1214244711E-02       4    8    1        -0.2013151523E-01      0.5664581584E-01
          0                 4           1             4    8     1       0.9637840705E-04       4    8    1         0.1612533660E-02      0.4537328166E-02

    ------------------------------------------------
       NWT REQUIRED            4 OUTER ITERATIONS 
       AND A TOTAL OF          7 INNER ITERATIONS.
    ------------------------------------------------

 NO OUTPUT CONTROL FOR STRESS PERIOD    3   TIME STEP   14
 
 SOLVING FOR HEAD 
                                                   Max.-Head-Change                         Max.-Flux-Residual
  Residual-Control   Outer-Iter.   Inner-Iter.     Column Row Layer    Maximum-Head-Change  Column Row Layer    Maximum-Flux-Residual          L2-NORM 
          0                 1           2             4    8     1      -0.1477809847E+00       4    8    1        -0.2191264333E+01      0.6199395420E+01
          0                 2           2             4    8     1       0.1464288423E-01       4    8    1         0.2191098730E+00      0.6199146154E+00
          0                 3           2             4    8     1      -0.1305898820E-02       4    8    1        -0.1972005360E-01      0.5579208438E-01
          0                 4           1             4    8     1       0.1036532683E-03       4    8    1         0.1579575397E-02      0.4468923317E-02
          0                 5           1             4    8     1      -0.7220659524E-05       4    8    1        -0.1110425296E-03      0.3141289069E-03

    ------------------------------------------------
       NWT REQUIRED            5 OUTER ITERATIONS 
       AND A TOTAL OF          8 INNER ITERATIONS.
    ------------------------------------------------

 OUTPUT CONTROL FOR STRESS PERIOD    3   TIME STEP   15
    PRINT BUDGET
    PRINT HEAD FOR ALL LAYERS
    SAVE HEAD FOR ALL LAYERS
    SAVE BUDGET

            WELLS   PERIOD    3   STEP  15
 WELL      1   LAYER   1   ROW     6   COL     4   RATE    -4.00000    
 WELL      2   LAYER   1   ROW     6   COL     5   RATE    -4.00000    
 WELL      3   LAYER   1   ROW     7   COL     4   RATE    -4.00000    
 WELL      4   LAYER   1   ROW     7   COL     5   RATE    -4.00000    
 WELL      5   LAYER   1   ROW     8   COL     4   RATE    -4.00000    
 WELL      6   LAYER   1   ROW     8   COL     5   RATE    -4.00000    
 WELL      7   LAYER   1   ROW     9   COL     4   RATE    -4.00000    
 WELL      8   LAYER   1   ROW     9   COL     5   RATE    -4.00000    
 WELL      9   LAYER   1   ROW    10   COL     4   RATE    -4.00000    
 WELL     10   LAYER   1   ROW    10   COL     5   RATE    -4.00000    

  HEAD DEP BOUNDS   PERIOD    3   STEP    15
 BOUNDARY      1   LAYER   1   ROW    13   COL     1   RATE   -0.285401    
 BOUNDARY      2   LAYER   1   ROW    14   COL     9   RATE    0.300650    



 STREAM LISTING     PERIOD      3   STEP       15

 LAYER ROW COL. STREAM  RCH.  FLOW INTO     FLOW TO   FLOW OUT OF   OVRLND.     DIRECT     STREAM       STREAM     STREAM     STREAM   STREAMBED  STREAMBED
                SEG.NO.  NO.  STRM. RCH.    AQUIFER    STRM. RCH.    RUNOFF     PRECIP       ET          HEAD       DEPTH      WIDTH   CONDCTNC.   GRADIENT

   1    1    1     1     1    2.5000E+01  2.4674E-01   2.5446E+01  6.931E-01  0.000E+00  0.000E+00  1.09423E+03  1.183E+00  1.311E+01  5.898E-02  1.394E+00
   1    2    2     1     2    2.5446E+01  3.8786E-01   2.6137E+01  1.078E+00  0.000E+00  0.000E+00  1.08925E+03  1.192E+00  1.322E+01  9.253E-02  1.397E+00
   1    3    3     1     3    2.6137E+01  3.3630E-01   2.6724E+01  9.241E-01  0.000E+00  0.000E+00  1.08362E+03  1.201E+00  1.334E+01  8.005E-02  1.400E+00
   1    3    4     1     4    2.6724E+01  3.1418E-01   2.7265E+01  8.548E-01  0.000E+00  0.000E+00  1.07862E+03  1.209E+00  1.345E+01  7.464E-02  1.403E+00
   1    4    5     2     1    1.7265E+01  0.0000E+00   1.7927E+01  6.623E-01  0.000E+00  0.000E+00  1.07291E+03  9.781E-01  1.200E+01  0.000E+00  1.326E+00
   1    5    6     2     2    1.7927E+01  0.0000E+00   1.8437E+01  5.094E-01  0.000E+00  0.000E+00  1.06751E+03  9.975E-01  1.200E+01  0.000E+00  1.333E+00
   1    6    6     2     3    1.8437E+01  0.0000E+00   1.8946E+01  5.094E-01  0.000E+00  0.000E+00  1.06281E+03  1.014E+00  1.200E+01  0.000E+00  1.338E+00
   1    7    6     2     4    1.8946E+01  0.0000E+00   1.9455E+01  5.094E-01  0.000E+00  0.000E+00  1.05811E+03  1.031E+00  1.200E+01  0.000E+00  1.344E+00
   1    8    6     2     5    1.9455E+01  0.0000E+00   1.9965E+01  5.094E-01  0.000E+00  0.000E+00  1.05341E+03  1.047E+00  1.200E+01  0.000E+00  1.349E+00
   1    3    5     3     1    1.0000E+01  2.8252E-01   1.1990E+01  2.273E+00  0.000E+00  0.000E+00  1.07555E+03  1.909E+00  9.636E+00  7.227E-02  1.955E+00
   1    3    6     3     2    1.1990E+01  2.4905E-01   1.4014E+01  2.273E+00  0.000E+00  0.000E+00  1.07264E+03  1.727E+00  8.909E+00  6.682E-02  1.864E+00
   1    3    7     3     3    1.4014E+01  1.9718E-01   1.5862E+01  2.045E+00  0.000E+00  0.000E+00  1.06987E+03  1.555E+00  8.218E+00  5.547E-02  1.777E+00
   1    4    8     3     4    1.5862E+01  2.2567E-01   1.8364E+01  2.727E+00  0.000E+00  0.000E+00  1.06682E+03  1.364E+00  7.455E+00  6.709E-02  1.682E+00
   1    5    8     3     5    1.8364E+01  1.5790E-01   2.0479E+01  2.273E+00  0.000E+00  0.000E+00  1.06362E+03  1.164E+00  6.655E+00  4.991E-02  1.582E+00
   1    6    8     3     6    2.0479E+01  5.5980E-02   2.1332E+01  9.091E-01  0.000E+00  0.000E+00  1.06158E+03  1.036E+00  6.145E+00  1.844E-02  1.518E+00
   1    5   10     4     1    1.0000E+01  0.0000E+00   1.0483E+01  4.830E-01  0.000E+00  0.000E+00  1.07838E+03  6.477E-01  1.000E+01  0.000E+00  1.216E+00
   1    5    9     4     2    1.0483E+01  0.0000E+00   1.1449E+01  9.659E-01  0.000E+00  0.000E+00  1.07158E+03  6.748E-01  1.000E+01  0.000E+00  1.225E+00
   1    6    8     4     3    1.1449E+01  0.0000E+00   1.2125E+01  6.761E-01  0.000E+00  0.000E+00  1.06389E+03  7.047E-01  1.000E+01  0.000E+00  1.235E+00
   1    6    8     5     1    3.3457E+01  5.0435E-01   3.3779E+01  8.267E-01  0.000E+00  0.000E+00  1.05903E+03  1.027E+00  3.131E+01  1.253E-01  1.342E+00
   1    7    7     5     2    3.3779E+01  6.3508E-01   3.4177E+01  1.033E+00  0.000E+00  0.000E+00  1.05453E+03  1.030E+00  3.151E+01  1.576E-01  1.343E+00
   1    8    7     5     3    3.4177E+01  4.4759E-01   3.4453E+01  7.233E-01  0.000E+00  0.000E+00  1.05028E+03  1.034E+00  3.170E+01  1.110E-01  1.345E+00
   1    8    6     5     4    3.4453E+01  3.2122E-01   3.4648E+01  5.167E-01  0.000E+00  0.000E+00  1.04729E+03  1.037E+00  3.183E+01  7.958E-02  1.346E+00
   1    9    6     6     1    5.4613E+01  0.0000E+00   5.6250E+01  1.636E+00  0.000E+00  0.000E+00  1.04470E+03  1.969E+00  1.200E+01  0.000E+00  1.656E+00
   1   10    7     6     2    5.6250E+01  0.0000E+00   5.7886E+01  1.636E+00  0.000E+00  0.000E+00  1.04019E+03  2.004E+00  1.200E+01  0.000E+00  1.668E+00
   1   11    7     6     3    5.7886E+01  0.0000E+00   5.9522E+01  1.636E+00  0.000E+00  0.000E+00  1.03567E+03  2.038E+00  1.200E+01  0.000E+00  1.679E+00
   1   12    7     6     4    5.9522E+01  0.0000E+00   6.1159E+01  1.636E+00  0.000E+00  0.000E+00  1.03116E+03  2.072E+00  1.200E+01  0.000E+00  1.691E+00
   1   13    7     6     5    6.1159E+01  0.0000E+00   6.1813E+01  6.545E-01  0.000E+00  0.000E+00  1.02800E+03  2.095E+00  1.200E+01  0.000E+00  9.969E-01
   1   14    9     7     1    1.5000E+02  1.5574E+00   1.4998E+02  1.540E+00  0.000E+00  0.000E+00  1.03987E+03  2.291E+00  5.531E+01  5.595E-01  9.279E-01
   1   13    8     7     2    1.4998E+02  2.5308E+00   1.4915E+02  1.694E+00  0.000E+00  0.000E+00  1.03479E+03  2.289E+00  5.530E+01  6.153E-01  1.371E+00
   1   13    7     7     3    1.4915E+02  2.6221E+00   1.4806E+02  1.540E+00  0.000E+00  0.000E+00  1.02970E+03  2.284E+00  5.528E+01  5.591E-01  1.563E+00
   1   13    6     8     1    2.0988E+02  2.2658E+00   2.1581E+02  8.196E+00  0.000E+00  0.000E+00  1.02509E+03  3.212E+00  4.657E+01  4.746E-01  1.591E+00
   1   13    5     8     2    2.1581E+02  1.6147E+00   2.2239E+02  8.196E+00  0.000E+00  0.000E+00  1.01887E+03  3.247E+00  4.708E+01  4.798E-01  1.122E+00
   1   13    4     8     3    2.2239E+02  6.0464E-01   2.2998E+02  8.196E+00  0.000E+00  0.000E+00  1.01266E+03  3.286E+00  4.765E+01  4.855E-01  4.151E-01
   1   13    3     8     4    2.2998E+02 -4.9659E-01   2.3868E+02  8.196E+00  0.000E+00  0.000E+00  1.00645E+03  3.330E+00  4.828E+01  4.920E+00 -3.364E-02
   1   13    2     8     5    2.3868E+02 -8.4143E-01   2.4771E+02  8.196E+00  0.000E+00  0.000E+00  1.00025E+03  3.376E+00  4.896E+01  4.989E+00 -5.622E-02
   1   13    1     8     6    2.4771E+02 -6.7010E-01   2.5330E+02  4.918E+00  0.000E+00  0.000E+00  9.95289E+02  3.414E+00  4.951E+01  3.027E+00 -7.379E-02



 UBDSV3 SAVING "     NETRECHARGE" ON UNIT 100 AT TIME STEP    15, STRESS PERIOD   3
 UBDSV3 SAVING "    NETDISCHARGE" ON UNIT 101 AT TIME STEP    15, STRESS PERIOD   3
 UBDSV3 SAVING "           GW ET" ON UNIT  61 AT TIME STEP    15, STRESS PERIOD   3
 UBDSV3 SAVING "    UZF RECHARGE" ON UNIT  61 AT TIME STEP    15, STRESS PERIOD   3
 UBDSV3 SAVING " SURFACE LEAKAGE" ON UNIT  61 AT TIME STEP    15, STRESS PERIOD   3
 UBDSV3 SAVING "       HORT+DUNN" ON UNIT  61 AT TIME STEP    15, STRESS PERIOD   3
 UBDSV3 SAVING "  STORAGE CHANGE" ON UNIT  61 AT TIME STEP    15, STRESS PERIOD   3


UNSATURATED ZONE PACKAGE VOLUMETRIC BUDGET FOR  TIME STEP    15 STRESS PERIOD    3
  ------------------------------------------------------------------------------



     CUMULATIVE VOLUMES      L**3       RATES FOR THIS TIME STEP      L**3/T
     ------------------                 ------------------------

           IN:                                      IN:
           ---                                      ---
        INFILTRATION =    22863598.3574          INFILTRATION =           2.9000

          OUT:                                     OUT:
          ----                                     ----
              UZF ET =     2364229.8980                UZF ET =           0.7961
        UZF RECHARGE =     7675291.8146          UZF RECHARGE =           0.0013

            IN - OUT =    12824076.6448              IN - OUT =           2.1026

          STORAGE:                                 STORAGE:
          --------                                 --------
      STORAGE CHANGE =    12824076.6252        STORAGE CHANGE =           2.1026

 PERCENT DISCREPANCY IS DIFFERENCE BETWEEN IN-OUT MINUS CHANGE IN STORAGE
 DIVIDED BY THE AVERAGE OF IN AND OUT TIMES 100

 PERCENT DISCREPANCY =           0.00     PERCENT DISCREPANCY =           0.00






1
              HEAD IN LAYER   1 AT END OF TIME STEP    15 IN STRESS PERIOD    3
  -----------------------------------------------------------------------------

           1       2       3       4       5       6       7       8       9      10
 ...................................................................................
   1  1029.28 1025.71 6999.00 6999.00 6999.00 6999.00 6999.00 6999.00 6999.00 6999.00
   2  1026.10 1021.18 1019.17 6999.00 6999.00 1017.63 1017.90 1018.04 6999.00 6999.00
   3  6999.00 1018.19 1017.03 1016.09 1016.00 1016.45 1017.10 1017.27 6999.00 6999.00
   4  1016.17 1016.23 1015.47 1014.57 1014.27 1014.43 1015.20 1016.53 1016.23 6999.00
   5  1015.38 1014.67 1013.80 1012.80 1012.94 1013.65 1014.28 1014.94 1015.24 1015.52
   6  1014.60 1013.60 1012.23 1009.88 1010.40 1012.75 1013.97 1014.81 1015.18 1015.88
   7  1014.07 1012.81 1011.34 1008.67 1009.44 1012.30 1013.93 1014.46 1015.42 6999.00
   8  6999.00 1012.17 1010.96 1008.28 1009.20 1012.24 1013.85 1014.73 1016.34 6999.00
   9  6999.00 1011.66 1010.85 1008.50 1009.51 1012.46 1014.07 1015.56 1017.92 6999.00
  10  6999.00 1011.09 1010.93 1009.45 1010.55 1013.41 1015.00 1016.96 1019.62 1020.51
  11  6999.00 1009.74 1010.76 1011.77 1013.14 1015.23 1017.02 1019.68 1022.86 6999.00
  12  1000.92 1005.79 1009.31 1011.92 1014.47 1017.37 1019.96 1024.64 1028.50 6999.00
  13   995.51 1000.42 1006.56 1011.42 1015.51 1020.31 1025.01 1030.68 1033.72 6999.00
  14  6999.00 1005.64 1008.39 1012.41 1016.42 1020.72 1025.93 1032.16 1037.09 6999.00
  15  6999.00 6999.00 1011.85 1014.21 1017.23 1019.96 6999.00 6999.00 6999.00 6999.00

 HEAD WILL BE SAVED ON UNIT   58 AT END OF TIME STEP   15, STRESS PERIOD    3
1
  VOLUMETRIC BUDGET FOR ENTIRE MODEL AT END OF TIME STEP   15, STRESS PERIOD   3
  ------------------------------------------------------------------------------

     CUMULATIVE VOLUMES      L**3       RATES FOR THIS TIME STEP      L**3/T
     ------------------                 ------------------------

           IN:                                      IN:
           ---                                      ---
             STORAGE =   175006320.0000               STORAGE =          32.6827
       CONSTANT HEAD =           0.0000         CONSTANT HEAD =           0.0000
               WELLS =           0.0000                 WELLS =           0.0000
     HEAD DEP BOUNDS =     2366615.0000       HEAD DEP BOUNDS =           0.3007
      STREAM LEAKAGE =   116447296.0000        STREAM LEAKAGE =          15.5571
        UZF RECHARGE =     7675296.5000          UZF RECHARGE =       1.2985E-03
               GW ET =           0.0000                 GW ET =           0.0000
     SURFACE LEAKAGE =           0.0000       SURFACE LEAKAGE =           0.0000

            TOTAL IN =   301495520.0000              TOTAL IN =          48.5417

          OUT:                                     OUT:
          ----                                     ----
             STORAGE =     1378088.6250               STORAGE =       6.7930E-02
       CONSTANT HEAD =           0.0000         CONSTANT HEAD =           0.0000
               WELLS =   236520000.0000                 WELLS =          40.0000
     HEAD DEP BOUNDS =     2247320.5000       HEAD DEP BOUNDS =           0.2854
      STREAM LEAKAGE =    25429212.0000        STREAM LEAKAGE =           2.0081
        UZF RECHARGE =           0.0000          UZF RECHARGE =           0.0000
               GW ET =    35927608.0000                 GW ET =           6.1802
     SURFACE LEAKAGE =           0.0000       SURFACE LEAKAGE =           0.0000

           TOTAL OUT =   301502240.0000             TOTAL OUT =          48.5416

            IN - OUT =       -6720.0000              IN - OUT =       1.0300E-04

 PERCENT DISCREPANCY =          -0.00     PERCENT DISCREPANCY =           0.00






         TIME SUMMARY AT END OF TIME STEP   15 IN STRESS PERIOD    3
                    SECONDS     MINUTES      HOURS       DAYS        YEARS
                    -----------------------------------------------------------
   TIME STEP LENGTH 3.14103E+05  5235.0      87.251      3.6354     9.95332E-03
 STRESS PERIOD TIME 2.62800E+06  43800.      730.00      30.417     8.32763E-02
         TOTAL TIME 7.88400E+06 1.31400E+05  2190.0      91.250     0.24983    
1
1
                            STRESS PERIOD NO.    4, LENGTH =   2628000.    
                            -----------------------------------------------

                              NUMBER OF TIME STEPS =    15

                               MULTIPLIER FOR DELT =     1.100

                            INITIAL TIME STEP SIZE =   82713.07    

 WELL NO.  LAYER   ROW   COL   STRESS RATE         
 --------------------------------------------------
      1      1      6      4      -4.000    
      2      1      6      5      -4.000    
      3      1      7      4      -4.000    
      4      1      7      5      -4.000    
      5      1      8      4      -4.000    
      6      1      8      5      -4.000    
      7      1      9      4      -4.000    
      8      1      9      5      -4.000    
      9      1     10      4      -4.000    
     10      1     10      5      -4.000    

     10 WELLS

 REUSING NON-PARAMETER GHB CELLS FROM LAST STRESS PERIOD

      2 GHB CELLS

 REUSING STREAM SEGMENT DATA FROM LAST STRESS PERIOD



            AREAL INFILTRATION RATE
 READING ON UNIT   19 WITH FORMAT: (10F4.0)            

            1           2           3           4           5           6           7           8           9          10
 ........................................................................................................................
   1   2.0000E-08  4.0000E-08   0.000       0.000       0.000       0.000       0.000       0.000       0.000       0.000    
   2   4.0000E-08  2.0000E-08  4.0000E-08   0.000       0.000      1.6000E-07  1.6000E-07  1.0000E-07   0.000       0.000    
   3    0.000      1.0000E-07  2.0000E-08  2.0000E-08  1.6000E-07  1.6000E-07  1.0000E-07  1.0000E-07   0.000       0.000    
   4   1.6000E-07  1.0000E-07  2.0000E-08  2.0000E-08  2.0000E-08  2.0000E-08  2.0000E-08  2.0000E-08  4.0000E-08   0.000    
   5   1.6000E-07  1.0000E-07  2.0000E-08  2.0000E-08  2.0000E-08  2.0000E-08  2.0000E-08  2.0000E-08  2.0000E-08  2.0000E-08
   6   1.6000E-07  1.0000E-07  1.0000E-07  4.0000E-08  4.0000E-08  2.0000E-08  2.0000E-08  2.0000E-08  2.0000E-08  1.0000E-07
   7   1.6000E-07  1.0000E-07  1.0000E-07  4.0000E-08  4.0000E-08  2.0000E-08  2.0000E-08  4.0000E-08  4.0000E-08   0.000    
   8    0.000      1.0000E-07  1.0000E-07  4.0000E-08  4.0000E-08  2.0000E-08  2.0000E-08  4.0000E-08  1.0000E-07   0.000    
   9    0.000      1.0000E-07  1.0000E-07  4.0000E-08  4.0000E-08  2.0000E-08  2.0000E-08  4.0000E-08  1.0000E-07   0.000    
  10    0.000      1.0000E-07  1.0000E-07  4.0000E-08  4.0000E-08  2.0000E-08  2.0000E-08  4.0000E-08  1.0000E-07  1.6000E-07
  11    0.000      2.0000E-08  2.0000E-08  2.0000E-08  2.0000E-08  2.0000E-08  2.0000E-08  4.0000E-08  1.0000E-07   0.000    
  12   2.0000E-08  2.0000E-08  2.0000E-08  2.0000E-08  2.0000E-08  2.0000E-08  2.0000E-08  2.0000E-08  4.0000E-08   0.000    
  13   2.0000E-08  2.0000E-08  4.0000E-08  4.0000E-08  4.0000E-08  4.0000E-08  4.0000E-08  2.0000E-08  2.0000E-08   0.000    
  14    0.000      4.0000E-08  1.0000E-07  1.0000E-07  1.0000E-07  1.0000E-07  1.0000E-07  4.0000E-08  2.0000E-08   0.000    
  15    0.000       0.000      1.6000E-07  1.6000E-07  1.6000E-07  1.6000E-07   0.000       0.000       0.000       0.000    

USING ET RATE FROM PREVIOUS STRESS PERIOD. CURRENT PERIOD IS:       4

 USING ET EXTINCTION DEPTH FROM PREVIOUS STRESS PERIOD. CURRENT PERIOD IS:       4

 USING EXTINCTION WATER CONTENT FROM PREVIOUS STRESS PERIOD. CURRENT PERIOD IS:       4
 
 SOLVING FOR HEAD 
                                                   Max.-Head-Change                         Max.-Flux-Residual
  Residual-Control   Outer-Iter.   Inner-Iter.     Column Row Layer    Maximum-Head-Change  Column Row Layer    Maximum-Flux-Residual          L2-NORM 
          0                 1           2             4    8     1      -0.3868358416E-01       4    8    1        -0.2142439361E+01      0.6227318023E+01
          0                 2           2             4    8     1       0.3833170271E-02       4    8    1         0.2142424668E+00      0.6145755897E+00
          0                 3           2             4    8     1      -0.3418522284E-03       4    8    1        -0.1928183884E-01      0.5513329764E-01
          0                 4           1             4    8     1       0.2713389681E-04       4    8    1         0.1544475571E-02      0.4413663811E-02

    ------------------------------------------------
       NWT REQUIRED            4 OUTER ITERATIONS 
       AND A TOTAL OF          7 INNER ITERATIONS.
    ------------------------------------------------

 NO OUTPUT CONTROL FOR STRESS PERIOD    4   TIME STEP    1
 
 SOLVING FOR HEAD 
                                                   Max.-Head-Change                         Max.-Flux-Residual
  Residual-Control   Outer-Iter.   Inner-Iter.     Column Row Layer    Maximum-Head-Change  Column Row Layer    Maximum-Flux-Residual          L2-NORM 
          0                 1           2             4    8     1      -0.4227329755E-01       4    8    1        -0.2129666451E+01      0.6196046374E+01
          0                 2           2             4    8     1       0.4188872302E-02       4    8    1         0.2129649339E+00      0.6083605208E+00
          0                 3           2             4    8     1      -0.3735747122E-03       4    8    1        -0.1916686323E-01      0.5446814149E-01
          0                 4           1             4    8     1       0.2965181070E-04       4    8    1         0.1535265997E-02      0.4358928615E-02

    ------------------------------------------------
       NWT REQUIRED            4 OUTER ITERATIONS 
       AND A TOTAL OF          7 INNER ITERATIONS.
    ------------------------------------------------

 NO OUTPUT CONTROL FOR STRESS PERIOD    4   TIME STEP    2
 
 SOLVING FOR HEAD 
                                                   Max.-Head-Change                         Max.-Flux-Residual
  Residual-Control   Outer-Iter.   Inner-Iter.     Column Row Layer    Maximum-Head-Change  Column Row Layer    Maximum-Flux-Residual          L2-NORM 
          0                 1           2             4    8     1      -0.4616628525E-01       4    8    1        -0.2115718016E+01      0.6162345748E+01
          0                 2           2             4    8     1       0.4574624392E-02       4    8    1         0.2115698072E+00      0.6047582968E+00
          0                 3           2             4    8     1      -0.4079771543E-03       4    8    1        -0.1904130458E-01      0.5419407060E-01
          0                 4           1             4    8     1       0.3238244173E-04       4    8    1         0.1525208728E-02      0.4337615532E-02

    ------------------------------------------------
       NWT REQUIRED            4 OUTER ITERATIONS 
       AND A TOTAL OF          7 INNER ITERATIONS.
    ------------------------------------------------

 NO OUTPUT CONTROL FOR STRESS PERIOD    4   TIME STEP    3
 
 SOLVING FOR HEAD 
                                                   Max.-Head-Change                         Max.-Flux-Residual
  Residual-Control   Outer-Iter.   Inner-Iter.     Column Row Layer    Maximum-Head-Change  Column Row Layer    Maximum-Flux-Residual          L2-NORM 
          0                 1           2             4    8     1      -0.5038244576E-01       4    8    1        -0.2100511417E+01      0.6126103897E+01
          0                 2           2             4    8     1       0.4992397839E-02       4    8    1         0.2100488165E+00      0.6015010176E+00
          0                 3           2             4    8     1      -0.4452353656E-03       4    8    1        -0.1890441867E-01      0.5390771156E-01
          0                 4           1             4    8     1       0.3533974353E-04       4    8    1         0.1514244150E-02      0.4314815692E-02

    ------------------------------------------------
       NWT REQUIRED            4 OUTER ITERATIONS 
       AND A TOTAL OF          7 INNER ITERATIONS.
    ------------------------------------------------

 NO OUTPUT CONTROL FOR STRESS PERIOD    4   TIME STEP    4
 
 SOLVING FOR HEAD 
                                                   Max.-Head-Change                         Max.-Flux-Residual
  Residual-Control   Outer-Iter.   Inner-Iter.     Column Row Layer    Maximum-Head-Change  Column Row Layer    Maximum-Flux-Residual          L2-NORM 
          0                 1           2             4    8     1      -0.5494142103E-01       4    8    1        -0.2083942968E+01      0.6087219534E+01
          0                 2           2             4    8     1       0.5444138399E-02       4    8    1         0.2083915856E+00      0.5979980230E+00
          0                 3           2             4    8     1      -0.4855228778E-03       4    8    1        -0.1875527166E-01      0.5359956985E-01
          0                 4           1             4    8     1       0.3853749089E-04       4    8    1         0.1502297423E-02      0.4290233884E-02

    ------------------------------------------------
       NWT REQUIRED            4 OUTER ITERATIONS 
       AND A TOTAL OF          7 INNER ITERATIONS.
    ------------------------------------------------

 OUTPUT CONTROL FOR STRESS PERIOD    4   TIME STEP    5
    PRINT BUDGET
    SAVE BUDGET

            WELLS   PERIOD    4   STEP   5
 WELL      1   LAYER   1   ROW     6   COL     4   RATE    -4.00000    
 WELL      2   LAYER   1   ROW     6   COL     5   RATE    -4.00000    
 WELL      3   LAYER   1   ROW     7   COL     4   RATE    -4.00000    
 WELL      4   LAYER   1   ROW     7   COL     5   RATE    -4.00000    
 WELL      5   LAYER   1   ROW     8   COL     4   RATE    -4.00000    
 WELL      6   LAYER   1   ROW     8   COL     5   RATE    -4.00000    
 WELL      7   LAYER   1   ROW     9   COL     4   RATE    -4.00000    
 WELL      8   LAYER   1   ROW     9   COL     5   RATE    -4.00000    
 WELL      9   LAYER   1   ROW    10   COL     4   RATE    -4.00000    
 WELL     10   LAYER   1   ROW    10   COL     5   RATE    -4.00000    

  HEAD DEP BOUNDS   PERIOD    4   STEP     5
 BOUNDARY      1   LAYER   1   ROW    13   COL     1   RATE   -0.288385    
 BOUNDARY      2   LAYER   1   ROW    14   COL     9   RATE    0.300699    



 STREAM LISTING     PERIOD      4   STEP        5

 LAYER ROW COL. STREAM  RCH.  FLOW INTO     FLOW TO   FLOW OUT OF   OVRLND.     DIRECT     STREAM       STREAM     STREAM     STREAM   STREAMBED  STREAMBED
                SEG.NO.  NO.  STRM. RCH.    AQUIFER    STRM. RCH.    RUNOFF     PRECIP       ET          HEAD       DEPTH      WIDTH   CONDCTNC.   GRADIENT

   1    1    1     1     1    2.5000E+01  2.4841E-01   2.6177E+01  1.425E+00  0.000E+00  0.000E+00  1.09424E+03  1.189E+00  1.318E+01  5.930E-02  1.396E+00
   1    2    2     1     2    2.6177E+01  3.9690E-01   2.7997E+01  2.217E+00  0.000E+00  0.000E+00  1.08927E+03  1.210E+00  1.347E+01  9.427E-02  1.403E+00
   1    3    3     1     3    2.7997E+01  3.5002E-01   2.9547E+01  1.900E+00  0.000E+00  0.000E+00  1.08365E+03  1.234E+00  1.378E+01  8.268E-02  1.411E+00
   1    3    4     1     4    2.9547E+01  3.3150E-01   3.0973E+01  1.758E+00  0.000E+00  0.000E+00  1.07866E+03  1.252E+00  1.405E+01  7.796E-02  1.417E+00
   1    4    5     2     1    2.0973E+01  0.0000E+00   2.2371E+01  1.398E+00  0.000E+00  0.000E+00  1.07304E+03  1.108E+00  1.200E+01  0.000E+00  1.369E+00
   1    5    6     2     2    2.2371E+01  0.0000E+00   2.3447E+01  1.075E+00  0.000E+00  0.000E+00  1.06766E+03  1.146E+00  1.200E+01  0.000E+00  1.382E+00
   1    6    6     2     3    2.3447E+01  0.0000E+00   2.4522E+01  1.075E+00  0.000E+00  0.000E+00  1.06297E+03  1.178E+00  1.200E+01  0.000E+00  1.393E+00
   1    7    6     2     4    2.4522E+01  0.0000E+00   2.5598E+01  1.075E+00  0.000E+00  0.000E+00  1.05828E+03  1.209E+00  1.200E+01  0.000E+00  1.403E+00
   1    8    6     2     5    2.5598E+01  0.0000E+00   2.6673E+01  1.075E+00  0.000E+00  0.000E+00  1.05360E+03  1.240E+00  1.200E+01  0.000E+00  1.413E+00
   1    3    5     3     1    1.0000E+01  2.8252E-01   1.4308E+01  4.591E+00  0.000E+00  0.000E+00  1.07555E+03  1.909E+00  9.636E+00  7.227E-02  1.955E+00
   1    3    6     3     2    1.4308E+01  2.4905E-01   1.8650E+01  4.591E+00  0.000E+00  0.000E+00  1.07264E+03  1.727E+00  8.909E+00  6.682E-02  1.864E+00
   1    3    7     3     3    1.8650E+01  1.9718E-01   2.2585E+01  4.132E+00  0.000E+00  0.000E+00  1.06987E+03  1.555E+00  8.218E+00  5.547E-02  1.777E+00
   1    4    8     3     4    2.2585E+01  2.2567E-01   2.7868E+01  5.509E+00  0.000E+00  0.000E+00  1.06682E+03  1.364E+00  7.455E+00  6.709E-02  1.682E+00
   1    5    8     3     5    2.7868E+01  1.5790E-01   3.2301E+01  4.591E+00  0.000E+00  0.000E+00  1.06362E+03  1.164E+00  6.655E+00  4.991E-02  1.582E+00
   1    6    8     3     6    3.2301E+01  5.5980E-02   3.4082E+01  1.836E+00  0.000E+00  0.000E+00  1.06158E+03  1.036E+00  6.145E+00  1.844E-02  1.518E+00
   1    5   10     4     1    1.0000E+01  0.0000E+00   1.0994E+01  9.943E-01  0.000E+00  0.000E+00  1.07838E+03  6.574E-01  1.000E+01  0.000E+00  1.219E+00
   1    5    9     4     2    1.0994E+01  0.0000E+00   1.2983E+01  1.989E+00  0.000E+00  0.000E+00  1.07162E+03  7.119E-01  1.000E+01  0.000E+00  1.237E+00
   1    6    8     4     3    1.2983E+01  0.0000E+00   1.4375E+01  1.392E+00  0.000E+00  0.000E+00  1.06395E+03  7.706E-01  1.000E+01  0.000E+00  1.257E+00
   1    6    8     5     1    4.8457E+01  6.5477E-01   4.9495E+01  1.693E+00  0.000E+00  0.000E+00  1.05917E+03  1.171E+00  3.924E+01  1.570E-01  1.390E+00
   1    7    7     5     2    4.9495E+01  8.3198E-01   5.0780E+01  2.117E+00  0.000E+00  0.000E+00  1.05468E+03  1.181E+00  3.980E+01  1.990E-01  1.394E+00
   1    8    7     5     3    5.0780E+01  5.9119E-01   5.1670E+01  1.482E+00  0.000E+00  0.000E+00  1.05044E+03  1.190E+00  4.032E+01  1.411E-01  1.397E+00
   1    8    6     5     4    5.1670E+01  4.2666E-01   5.2302E+01  1.058E+00  0.000E+00  0.000E+00  1.04745E+03  1.196E+00  4.067E+01  1.017E-01  1.399E+00
   1    9    6     6     1    7.8975E+01  0.0000E+00   8.2316E+01  3.341E+00  0.000E+00  0.000E+00  1.04519E+03  2.466E+00  1.200E+01  0.000E+00  1.822E+00
   1   10    7     6     2    8.2316E+01  0.0000E+00   8.5657E+01  3.341E+00  0.000E+00  0.000E+00  1.04071E+03  2.526E+00  1.200E+01  0.000E+00  1.842E+00
   1   11    7     6     3    8.5657E+01  0.0000E+00   8.8998E+01  3.341E+00  0.000E+00  0.000E+00  1.03622E+03  2.586E+00  1.200E+01  0.000E+00  1.862E+00
   1   12    7     6     4    8.8998E+01  0.0000E+00   9.2339E+01  3.341E+00  0.000E+00  0.000E+00  1.03174E+03  2.645E+00  1.200E+01  0.000E+00  1.882E+00
   1   13    7     6     5    9.2339E+01  0.0000E+00   9.3675E+01  1.336E+00  0.000E+00  0.000E+00  1.02859E+03  2.686E+00  1.200E+01  0.000E+00  1.194E+00
   1   14    9     7     1    1.5000E+02  1.5611E+00   1.5159E+02  3.153E+00  0.000E+00  0.000E+00  1.03988E+03  2.295E+00  5.533E+01  5.597E-01  9.298E-01
   1   13    8     7     2    1.5159E+02  2.5421E+00   1.5252E+02  3.469E+00  0.000E+00  0.000E+00  1.03480E+03  2.302E+00  5.536E+01  6.160E-01  1.376E+00
   1   13    7     7     3    1.5252E+02  2.6396E+00   1.5303E+02  3.153E+00  0.000E+00  0.000E+00  1.02973E+03  2.306E+00  5.538E+01  5.602E-01  1.571E+00
   1   13    6     8     1    2.4671E+02  2.5227E+00   2.6082E+02  1.663E+01  0.000E+00  0.000E+00  1.02531E+03  3.431E+00  4.975E+01  5.069E-01  1.659E+00
   1   13    5     8     2    2.6082E+02  1.8715E+00   2.7558E+02  1.663E+01  0.000E+00  0.000E+00  1.01913E+03  3.503E+00  5.079E+01  5.176E-01  1.205E+00
   1   13    4     8     3    2.7558E+02  8.1004E-01   2.9141E+02  1.663E+01  0.000E+00  0.000E+00  1.01295E+03  3.576E+00  5.186E+01  5.284E-01  5.110E-01
   1   13    3     8     4    2.9141E+02  8.7787E-02   3.0795E+02  1.663E+01  0.000E+00  0.000E+00  1.00678E+03  3.652E+00  5.295E+01  5.395E-01  5.423E-02
   1   13    2     8     5    3.0795E+02  4.6474E-02   3.2454E+02  1.663E+01  0.000E+00  0.000E+00  1.00060E+03  3.726E+00  5.403E+01  5.505E-01  2.814E-02
   1   13    1     8     6    3.2454E+02  2.3398E-02   3.3450E+02  9.980E+00  0.000E+00  0.000E+00  9.95659E+02  3.784E+00  5.487E+01  3.355E-01  2.325E-02



 UBDSV3 SAVING "     NETRECHARGE" ON UNIT 100 AT TIME STEP     5, STRESS PERIOD   4
 UBDSV3 SAVING "    NETDISCHARGE" ON UNIT 101 AT TIME STEP     5, STRESS PERIOD   4
 UBDSV3 SAVING "           GW ET" ON UNIT  61 AT TIME STEP     5, STRESS PERIOD   4
 UBDSV3 SAVING "    UZF RECHARGE" ON UNIT  61 AT TIME STEP     5, STRESS PERIOD   4
 UBDSV3 SAVING " SURFACE LEAKAGE" ON UNIT  61 AT TIME STEP     5, STRESS PERIOD   4
 UBDSV3 SAVING "       HORT+DUNN" ON UNIT  61 AT TIME STEP     5, STRESS PERIOD   4
 UBDSV3 SAVING "  STORAGE CHANGE" ON UNIT  61 AT TIME STEP     5, STRESS PERIOD   4


UNSATURATED ZONE PACKAGE VOLUMETRIC BUDGET FOR  TIME STEP     5 STRESS PERIOD    4
  ------------------------------------------------------------------------------



     CUMULATIVE VOLUMES      L**3       RATES FOR THIS TIME STEP      L**3/T
     ------------------                 ------------------------

           IN:                                      IN:
           ---                                      ---
        INFILTRATION =    24328015.9170          INFILTRATION =           2.9000

          OUT:                                     OUT:
          ----                                     ----
              UZF ET =     2789021.7091                UZF ET =           0.8631
        UZF RECHARGE =     7731646.7644          UZF RECHARGE =           0.1164

            IN - OUT =    13807347.4435              IN - OUT =           1.9205

          STORAGE:                                 STORAGE:
          --------                                 --------
      STORAGE CHANGE =    13807347.4166        STORAGE CHANGE =           1.9205

 PERCENT DISCREPANCY IS DIFFERENCE BETWEEN IN-OUT MINUS CHANGE IN STORAGE
 DIVIDED BY THE AVERAGE OF IN AND OUT TIMES 100

 PERCENT DISCREPANCY =           0.00     PERCENT DISCREPANCY =           0.00






1
  VOLUMETRIC BUDGET FOR ENTIRE MODEL AT END OF TIME STEP    5, STRESS PERIOD   4
  ------------------------------------------------------------------------------

     CUMULATIVE VOLUMES      L**3       RATES FOR THIS TIME STEP      L**3/T
     ------------------                 ------------------------

           IN:                                      IN:
           ---                                      ---
             STORAGE =   190946560.0000               STORAGE =          31.4909
       CONSTANT HEAD =           0.0000         CONSTANT HEAD =           0.0000
               WELLS =           0.0000                 WELLS =           0.0000
     HEAD DEP BOUNDS =     2518449.5000       HEAD DEP BOUNDS =           0.3007
      STREAM LEAKAGE =   125108536.0000        STREAM LEAKAGE =          17.1044
        UZF RECHARGE =     7731651.0000          UZF RECHARGE =           0.1164
               GW ET =           0.0000                 GW ET =           0.0000
     SURFACE LEAKAGE =           0.0000       SURFACE LEAKAGE =           0.0000

            TOTAL IN =   326305184.0000              TOTAL IN =          49.0124

          OUT:                                     OUT:
          ----                                     ----
             STORAGE =     2725872.7500               STORAGE =           2.5513
       CONSTANT HEAD =           0.0000         CONSTANT HEAD =           0.0000
               WELLS =   256718880.0000                 WELLS =          40.0000
     HEAD DEP BOUNDS =     2392345.5000       HEAD DEP BOUNDS =           0.2884
      STREAM LEAKAGE =    25429212.0000        STREAM LEAKAGE =           0.0000
        UZF RECHARGE =           0.0000          UZF RECHARGE =           0.0000
               GW ET =    39046416.0000                 GW ET =           6.1743
     SURFACE LEAKAGE =           0.0000       SURFACE LEAKAGE =           0.0000

           TOTAL OUT =   326312704.0000             TOTAL OUT =          49.0140

            IN - OUT =       -7520.0000              IN - OUT =      -1.5793E-03

 PERCENT DISCREPANCY =          -0.00     PERCENT DISCREPANCY =          -0.00






         TIME SUMMARY AT END OF TIME STEP    5 IN STRESS PERIOD    4
                    SECONDS     MINUTES      HOURS       DAYS        YEARS
                    -----------------------------------------------------------
   TIME STEP LENGTH 1.21100E+05  2018.3      33.639      1.4016     3.83743E-03
 STRESS PERIOD TIME 5.04972E+05  8416.2      140.27      5.8446     1.60016E-02
         TOTAL TIME 8.38897E+06 1.39816E+05  2330.3      97.095     0.26583    
1
 
 SOLVING FOR HEAD 
                                                   Max.-Head-Change                         Max.-Flux-Residual
  Residual-Control   Outer-Iter.   Inner-Iter.     Column Row Layer    Maximum-Head-Change  Column Row Layer    Maximum-Flux-Residual          L2-NORM 
          0                 1           2             4    8     1      -0.5986315762E-01       4    8    1        -0.2065926074E+01      0.6045568270E+01
          0                 2           2             4    8     1       0.5931821865E-02       4    8    1         0.2065894466E+00      0.5942363034E+00
          0                 3           2             4    8     1      -0.5290159063E-03       4    8    1        -0.1859308356E-01      0.5326847162E-01
          0                 4           1             4    8     1       0.4198966947E-04       4    8    1         0.1489306133E-02      0.4263778557E-02

    ------------------------------------------------
       NWT REQUIRED            4 OUTER ITERATIONS 
       AND A TOTAL OF          7 INNER ITERATIONS.
    ------------------------------------------------

 NO OUTPUT CONTROL FOR STRESS PERIOD    4   TIME STEP    6
 
 SOLVING FOR HEAD 
                                                   Max.-Head-Change                         Max.-Flux-Residual
  Residual-Control   Outer-Iter.   Inner-Iter.     Column Row Layer    Maximum-Head-Change  Column Row Layer    Maximum-Flux-Residual          L2-NORM 
          0                 1           2             4    8     1      -0.6516669631E-01       4    8    1        -0.2046353488E+01      0.6001045490E+01
          0                 2           2             4    8     1       0.6457334094E-02       4    8    1         0.2046316661E+00      0.5902048292E+00
          0                 3           2             4    8     1      -0.5758826438E-03       4    8    1        -0.1841688840E-01      0.5291358638E-01
          0                 4           1             4    8     1       0.4570962986E-04       4    8    1         0.1475192856E-02      0.4235446168E-02

    ------------------------------------------------
       NWT REQUIRED            4 OUTER ITERATIONS 
       AND A TOTAL OF          7 INNER ITERATIONS.
    ------------------------------------------------

 NO OUTPUT CONTROL FOR STRESS PERIOD    4   TIME STEP    7
 
 SOLVING FOR HEAD 
                                                   Max.-Head-Change                         Max.-Flux-Residual
  Residual-Control   Outer-Iter.   Inner-Iter.     Column Row Layer    Maximum-Head-Change  Column Row Layer    Maximum-Flux-Residual          L2-NORM 
          0                 1           2             4    8     1      -0.7087086107E-01       4    8    1        -0.2025138983E+01      0.5953550749E+01
          0                 2           2             4    8     1       0.7022539239E-02       4    8    1         0.2025096107E+00      0.5858922333E+00
          0                 3           2             4    8     1      -0.6262893515E-03       4    8    1        -0.1822590931E-01      0.5253362522E-01
          0                 4           1             4    8     1       0.4971056780E-04       4    8    1         0.1459895363E-02      0.4205115328E-02

    ------------------------------------------------
       NWT REQUIRED            4 OUTER ITERATIONS 
       AND A TOTAL OF          7 INNER ITERATIONS.
    ------------------------------------------------

 NO OUTPUT CONTROL FOR STRESS PERIOD    4   TIME STEP    8
 
 SOLVING FOR HEAD 
                                                   Max.-Head-Change                         Max.-Flux-Residual
  Residual-Control   Outer-Iter.   Inner-Iter.     Column Row Layer    Maximum-Head-Change  Column Row Layer    Maximum-Flux-Residual          L2-NORM 
          0                 1           2             4    8     1      -0.7699287688E-01       4    8    1        -0.2002181555E+01      0.5902972172E+01
          0                 2           2             4    8     1       0.7629142752E-02       4    8    1         0.2002131699E+00      0.6052715952E+00
          0                 3           2             4    8     1      -0.6803881423E-03       4    8    1        -0.1801923648E-01      0.5258628879E-01
          0                 4           1             4    8     1       0.5400455845E-04       4    8    1         0.1443340814E-02      0.4177967463E-02

    ------------------------------------------------
       NWT REQUIRED            4 OUTER ITERATIONS 
       AND A TOTAL OF          7 INNER ITERATIONS.
    ------------------------------------------------

 NO OUTPUT CONTROL FOR STRESS PERIOD    4   TIME STEP    9
 
 SOLVING FOR HEAD 
                                                   Max.-Head-Change                         Max.-Flux-Residual
  Residual-Control   Outer-Iter.   Inner-Iter.     Column Row Layer    Maximum-Head-Change  Column Row Layer    Maximum-Flux-Residual          L2-NORM 
          0                 1           2             4    8     1      -0.8354887060E-01       4    8    1        -0.1977398405E+01      0.5832283281E+01
          0                 2           2             4    8     1       0.8278740964E-02       4    8    1         0.1977340526E+00      0.5762382552E+00
          0                 3           2             4    8     1      -0.7383213964E-03       4    8    1        -0.1779612377E-01      0.5169357630E-01
          0                 4           1             4    8     1       0.5860290200E-04       4    8    1         0.1425469422E-02      0.4137744383E-02

    ------------------------------------------------
       NWT REQUIRED            4 OUTER ITERATIONS 
       AND A TOTAL OF          7 INNER ITERATIONS.
    ------------------------------------------------

 OUTPUT CONTROL FOR STRESS PERIOD    4   TIME STEP   10
    PRINT BUDGET
    SAVE BUDGET

            WELLS   PERIOD    4   STEP  10
 WELL      1   LAYER   1   ROW     6   COL     4   RATE    -4.00000    
 WELL      2   LAYER   1   ROW     6   COL     5   RATE    -4.00000    
 WELL      3   LAYER   1   ROW     7   COL     4   RATE    -4.00000    
 WELL      4   LAYER   1   ROW     7   COL     5   RATE    -4.00000    
 WELL      5   LAYER   1   ROW     8   COL     4   RATE    -4.00000    
 WELL      6   LAYER   1   ROW     8   COL     5   RATE    -4.00000    
 WELL      7   LAYER   1   ROW     9   COL     4   RATE    -4.00000    
 WELL      8   LAYER   1   ROW     9   COL     5   RATE    -4.00000    
 WELL      9   LAYER   1   ROW    10   COL     4   RATE    -4.00000    
 WELL     10   LAYER   1   ROW    10   COL     5   RATE    -4.00000    

  HEAD DEP BOUNDS   PERIOD    4   STEP    10
 BOUNDARY      1   LAYER   1   ROW    13   COL     1   RATE   -0.292715    
 BOUNDARY      2   LAYER   1   ROW    14   COL     9   RATE    0.300775    



 STREAM LISTING     PERIOD      4   STEP       10

 LAYER ROW COL. STREAM  RCH.  FLOW INTO     FLOW TO   FLOW OUT OF   OVRLND.     DIRECT     STREAM       STREAM     STREAM     STREAM   STREAMBED  STREAMBED
                SEG.NO.  NO.  STRM. RCH.    AQUIFER    STRM. RCH.    RUNOFF     PRECIP       ET          HEAD       DEPTH      WIDTH   CONDCTNC.   GRADIENT

   1    1    1     1     1    2.5000E+01  2.4841E-01   2.6177E+01  1.425E+00  0.000E+00  0.000E+00  1.09424E+03  1.189E+00  1.318E+01  5.930E-02  1.396E+00
   1    2    2     1     2    2.6177E+01  3.9690E-01   2.7997E+01  2.217E+00  0.000E+00  0.000E+00  1.08927E+03  1.210E+00  1.347E+01  9.427E-02  1.403E+00
   1    3    3     1     3    2.7997E+01  3.5002E-01   2.9547E+01  1.900E+00  0.000E+00  0.000E+00  1.08365E+03  1.234E+00  1.378E+01  8.268E-02  1.411E+00
   1    3    4     1     4    2.9547E+01  3.3150E-01   3.0973E+01  1.758E+00  0.000E+00  0.000E+00  1.07866E+03  1.252E+00  1.405E+01  7.796E-02  1.417E+00
   1    4    5     2     1    2.0973E+01  0.0000E+00   2.2371E+01  1.398E+00  0.000E+00  0.000E+00  1.07304E+03  1.108E+00  1.200E+01  0.000E+00  1.369E+00
   1    5    6     2     2    2.2371E+01  0.0000E+00   2.3447E+01  1.075E+00  0.000E+00  0.000E+00  1.06766E+03  1.146E+00  1.200E+01  0.000E+00  1.382E+00
   1    6    6     2     3    2.3447E+01  0.0000E+00   2.4522E+01  1.075E+00  0.000E+00  0.000E+00  1.06297E+03  1.178E+00  1.200E+01  0.000E+00  1.393E+00
   1    7    6     2     4    2.4522E+01  0.0000E+00   2.5598E+01  1.075E+00  0.000E+00  0.000E+00  1.05828E+03  1.209E+00  1.200E+01  0.000E+00  1.403E+00
   1    8    6     2     5    2.5598E+01  0.0000E+00   2.6673E+01  1.075E+00  0.000E+00  0.000E+00  1.05360E+03  1.240E+00  1.200E+01  0.000E+00  1.413E+00
   1    3    5     3     1    1.0000E+01  2.8252E-01   1.4308E+01  4.591E+00  0.000E+00  0.000E+00  1.07555E+03  1.909E+00  9.636E+00  7.227E-02  1.955E+00
   1    3    6     3     2    1.4308E+01  2.4905E-01   1.8650E+01  4.591E+00  0.000E+00  0.000E+00  1.07264E+03  1.727E+00  8.909E+00  6.682E-02  1.864E+00
   1    3    7     3     3    1.8650E+01  1.9718E-01   2.2585E+01  4.132E+00  0.000E+00  0.000E+00  1.06987E+03  1.555E+00  8.218E+00  5.547E-02  1.777E+00
   1    4    8     3     4    2.2585E+01  2.2567E-01   2.7868E+01  5.509E+00  0.000E+00  0.000E+00  1.06682E+03  1.364E+00  7.455E+00  6.709E-02  1.682E+00
   1    5    8     3     5    2.7868E+01  1.5790E-01   3.2301E+01  4.591E+00  0.000E+00  0.000E+00  1.06362E+03  1.164E+00  6.655E+00  4.991E-02  1.582E+00
   1    6    8     3     6    3.2301E+01  5.5980E-02   3.4082E+01  1.836E+00  0.000E+00  0.000E+00  1.06158E+03  1.036E+00  6.145E+00  1.844E-02  1.518E+00
   1    5   10     4     1    1.0000E+01  0.0000E+00   1.0994E+01  9.943E-01  0.000E+00  0.000E+00  1.07838E+03  6.574E-01  1.000E+01  0.000E+00  1.219E+00
   1    5    9     4     2    1.0994E+01  0.0000E+00   1.2983E+01  1.989E+00  0.000E+00  0.000E+00  1.07162E+03  7.119E-01  1.000E+01  0.000E+00  1.237E+00
   1    6    8     4     3    1.2983E+01  0.0000E+00   1.4375E+01  1.392E+00  0.000E+00  0.000E+00  1.06395E+03  7.706E-01  1.000E+01  0.000E+00  1.257E+00
   1    6    8     5     1    4.8457E+01  6.5477E-01   4.9495E+01  1.693E+00  0.000E+00  0.000E+00  1.05917E+03  1.171E+00  3.924E+01  1.570E-01  1.390E+00
   1    7    7     5     2    4.9495E+01  8.3198E-01   5.0780E+01  2.117E+00  0.000E+00  0.000E+00  1.05468E+03  1.181E+00  3.980E+01  1.990E-01  1.394E+00
   1    8    7     5     3    5.0780E+01  5.9119E-01   5.1670E+01  1.482E+00  0.000E+00  0.000E+00  1.05044E+03  1.190E+00  4.032E+01  1.411E-01  1.397E+00
   1    8    6     5     4    5.1670E+01  4.2666E-01   5.2302E+01  1.058E+00  0.000E+00  0.000E+00  1.04745E+03  1.196E+00  4.067E+01  1.017E-01  1.399E+00
   1    9    6     6     1    7.8975E+01  0.0000E+00   8.2316E+01  3.341E+00  0.000E+00  0.000E+00  1.04519E+03  2.466E+00  1.200E+01  0.000E+00  1.822E+00
   1   10    7     6     2    8.2316E+01  0.0000E+00   8.5657E+01  3.341E+00  0.000E+00  0.000E+00  1.04071E+03  2.526E+00  1.200E+01  0.000E+00  1.842E+00
   1   11    7     6     3    8.5657E+01  0.0000E+00   8.8998E+01  3.341E+00  0.000E+00  0.000E+00  1.03622E+03  2.586E+00  1.200E+01  0.000E+00  1.862E+00
   1   12    7     6     4    8.8998E+01  0.0000E+00   9.2339E+01  3.341E+00  0.000E+00  0.000E+00  1.03174E+03  2.645E+00  1.200E+01  0.000E+00  1.882E+00
   1   13    7     6     5    9.2339E+01  0.0000E+00   9.3675E+01  1.336E+00  0.000E+00  0.000E+00  1.02859E+03  2.686E+00  1.200E+01  0.000E+00  1.194E+00
   1   14    9     7     1    1.5000E+02  1.5622E+00   1.5159E+02  3.153E+00  0.000E+00  0.000E+00  1.03988E+03  2.295E+00  5.533E+01  5.597E-01  9.304E-01
   1   13    8     7     2    1.5159E+02  2.5426E+00   1.5252E+02  3.469E+00  0.000E+00  0.000E+00  1.03480E+03  2.302E+00  5.536E+01  6.160E-01  1.376E+00
   1   13    7     7     3    1.5252E+02  2.6394E+00   1.5303E+02  3.153E+00  0.000E+00  0.000E+00  1.02973E+03  2.306E+00  5.538E+01  5.602E-01  1.571E+00
   1   13    6     8     1    2.4671E+02  2.5134E+00   2.6083E+02  1.663E+01  0.000E+00  0.000E+00  1.02531E+03  3.431E+00  4.975E+01  5.069E-01  1.653E+00
   1   13    5     8     2    2.6083E+02  1.8696E+00   2.7559E+02  1.663E+01  0.000E+00  0.000E+00  1.01913E+03  3.503E+00  5.079E+01  5.176E-01  1.204E+00
   1   13    4     8     3    2.7559E+02  8.0742E-01   2.9142E+02  1.663E+01  0.000E+00  0.000E+00  1.01295E+03  3.576E+00  5.186E+01  5.284E-01  5.093E-01
   1   13    3     8     4    2.9142E+02  4.7332E-02   3.0800E+02  1.663E+01  0.000E+00  0.000E+00  1.00678E+03  3.652E+00  5.295E+01  5.396E-01  2.924E-02
   1   13    2     8     5    3.0800E+02 -2.1815E-01   3.2486E+02  1.663E+01  0.000E+00  0.000E+00  1.00060E+03  3.727E+00  5.404E+01  5.507E+00 -1.320E-02
   1   13    1     8     6    3.2486E+02 -1.4251E-01   3.3498E+02  9.980E+00  0.000E+00  0.000E+00  9.95661E+02  3.786E+00  5.489E+01  3.356E+00 -1.415E-02



 UBDSV3 SAVING "     NETRECHARGE" ON UNIT 100 AT TIME STEP    10, STRESS PERIOD   4
 UBDSV3 SAVING "    NETDISCHARGE" ON UNIT 101 AT TIME STEP    10, STRESS PERIOD   4
 UBDSV3 SAVING "           GW ET" ON UNIT  61 AT TIME STEP    10, STRESS PERIOD   4
 UBDSV3 SAVING "    UZF RECHARGE" ON UNIT  61 AT TIME STEP    10, STRESS PERIOD   4
 UBDSV3 SAVING " SURFACE LEAKAGE" ON UNIT  61 AT TIME STEP    10, STRESS PERIOD   4
 UBDSV3 SAVING "       HORT+DUNN" ON UNIT  61 AT TIME STEP    10, STRESS PERIOD   4
 UBDSV3 SAVING "  STORAGE CHANGE" ON UNIT  61 AT TIME STEP    10, STRESS PERIOD   4


UNSATURATED ZONE PACKAGE VOLUMETRIC BUDGET FOR  TIME STEP    10 STRESS PERIOD    4
  ------------------------------------------------------------------------------



     CUMULATIVE VOLUMES      L**3       RATES FOR THIS TIME STEP      L**3/T
     ------------------                 ------------------------

           IN:                                      IN:
           ---                                      ---
        INFILTRATION =    26686475.1846          INFILTRATION =           2.9000

          OUT:                                     OUT:
          ----                                     ----
              UZF ET =     3530287.4911                UZF ET =           0.9409
        UZF RECHARGE =     7814109.0754          UZF RECHARGE =           0.0868

            IN - OUT =    15342078.6180              IN - OUT =           1.8723

          STORAGE:                                 STORAGE:
          --------                                 --------
      STORAGE CHANGE =    15342077.1376        STORAGE CHANGE =           1.8723

 PERCENT DISCREPANCY IS DIFFERENCE BETWEEN IN-OUT MINUS CHANGE IN STORAGE
 DIVIDED BY THE AVERAGE OF IN AND OUT TIMES 100

 PERCENT DISCREPANCY =           0.00     PERCENT DISCREPANCY =           0.00






1
  VOLUMETRIC BUDGET FOR ENTIRE MODEL AT END OF TIME STEP   10, STRESS PERIOD   4
  ------------------------------------------------------------------------------

     CUMULATIVE VOLUMES      L**3       RATES FOR THIS TIME STEP      L**3/T
     ------------------                 ------------------------

           IN:                                      IN:
           ---                                      ---
             STORAGE =   216426112.0000               STORAGE =          31.2319
       CONSTANT HEAD =           0.0000         CONSTANT HEAD =           0.0000
               WELLS =           0.0000                 WELLS =           0.0000
     HEAD DEP BOUNDS =     2763034.0000       HEAD DEP BOUNDS =           0.3008
      STREAM LEAKAGE =   138946864.0000        STREAM LEAKAGE =          16.9818
        UZF RECHARGE =     7814113.0000          UZF RECHARGE =       8.6815E-02
               GW ET =           0.0000                 GW ET =           0.0000
     SURFACE LEAKAGE =           0.0000       SURFACE LEAKAGE =           0.0000

            TOTAL IN =   365950112.0000              TOTAL IN =          48.6012

          OUT:                                     OUT:
          ----                                     ----
             STORAGE =     4488144.0000               STORAGE =           1.7820
       CONSTANT HEAD =           0.0000         CONSTANT HEAD =           0.0000
               WELLS =   289249344.0000                 WELLS =          40.0000
     HEAD DEP BOUNDS =     2629084.0000       HEAD DEP BOUNDS =           0.2927
      STREAM LEAKAGE =    25528084.0000        STREAM LEAKAGE =           0.3607
        UZF RECHARGE =           0.0000          UZF RECHARGE =           0.0000
               GW ET =    44064280.0000                 GW ET =           6.1675
     SURFACE LEAKAGE =           0.0000       SURFACE LEAKAGE =           0.0000

           TOTAL OUT =   365958944.0000             TOTAL OUT =          48.6028

            IN - OUT =       -8832.0000              IN - OUT =      -1.5755E-03

 PERCENT DISCREPANCY =          -0.00     PERCENT DISCREPANCY =          -0.00






         TIME SUMMARY AT END OF TIME STEP   10 IN STRESS PERIOD    4
                    SECONDS     MINUTES      HOURS       DAYS        YEARS
                    -----------------------------------------------------------
   TIME STEP LENGTH 1.95033E+05  3250.6      54.176      2.2573     6.18023E-03
 STRESS PERIOD TIME 1.31823E+06  21971.      366.18      15.257     4.17723E-02
         TOTAL TIME 9.20223E+06 1.53371E+05  2556.2      106.51     0.29160    
1
 
 SOLVING FOR HEAD 
                                                   Max.-Head-Change                         Max.-Flux-Residual
  Residual-Control   Outer-Iter.   Inner-Iter.     Column Row Layer    Maximum-Head-Change  Column Row Layer    Maximum-Flux-Residual          L2-NORM 
          0                 1           2             4    8     1      -0.9055265187E-01       4    8    1        -0.1950702982E+01      0.5757898161E+01
          0                 2           2             4    8     1       0.8972700245E-02       4    8    1         0.1950635923E+00      0.5705897137E+00
          0                 3           2             4    8     1      -0.8002109900E-03       4    8    1        -0.1755579133E-01      0.5122705157E-01
          0                 4           1             4    8     1       0.6351527120E-04       4    8    1         0.1406218718E-02      0.4101064712E-02

    ------------------------------------------------
       NWT REQUIRED            4 OUTER ITERATIONS 
       AND A TOTAL OF          7 INNER ITERATIONS.
    ------------------------------------------------

 NO OUTPUT CONTROL FOR STRESS PERIOD    4   TIME STEP   11
 
 SOLVING FOR HEAD 
                                                   Max.-Head-Change                         Max.-Flux-Residual
  Residual-Control   Outer-Iter.   Inner-Iter.     Column Row Layer    Maximum-Head-Change  Column Row Layer    Maximum-Flux-Residual          L2-NORM 
          0                 1           2             4    8     1      -0.9801597788E-01       4    8    1        -0.1922026917E+01      0.5685651298E+01
          0                 2           2             4    8     1       0.9712183184E-02       4    8    1         0.1921949408E+00      0.5647567783E+00
          0                 3           2             4    8     1      -0.8661606302E-03       4    8    1        -0.1729762291E-01      0.5073485684E-01
          0                 4           1             4    8     1       0.6874989922E-04       4    8    1         0.1385539339E-02      0.4062191421E-02

    ------------------------------------------------
       NWT REQUIRED            4 OUTER ITERATIONS 
       AND A TOTAL OF          7 INNER ITERATIONS.
    ------------------------------------------------

 NO OUTPUT CONTROL FOR STRESS PERIOD    4   TIME STEP   12
 
 SOLVING FOR HEAD 
                                                   Max.-Head-Change                         Max.-Flux-Residual
  Residual-Control   Outer-Iter.   Inner-Iter.     Column Row Layer    Maximum-Head-Change  Column Row Layer    Maximum-Flux-Residual          L2-NORM 
          0                 1           2             4    8     1      -0.1059475849E+00       4    8    1        -0.1891308689E+01      0.5614578786E+01
          0                 2           2             4    8     1       0.1049805261E-01       4    8    1         0.1891219359E+00      0.5587143233E+00
          0                 3           2             4    8     1      -0.9362472948E-03       4    8    1        -0.1702106405E-01      0.5021629734E-01
          0                 4           1             4    8     1       0.7431289299E-04       4    8    1         0.1363386873E-02      0.4021081630E-02

    ------------------------------------------------
       NWT REQUIRED            4 OUTER ITERATIONS 
       AND A TOTAL OF          7 INNER ITERATIONS.
    ------------------------------------------------

 NO OUTPUT CONTROL FOR STRESS PERIOD    4   TIME STEP   13
 
 SOLVING FOR HEAD 
                                                   Max.-Head-Change                         Max.-Flux-Residual
  Residual-Control   Outer-Iter.   Inner-Iter.     Column Row Layer    Maximum-Head-Change  Column Row Layer    Maximum-Flux-Residual          L2-NORM 
          0                 1           2             4    8     1      -0.1143531735E+00       4    8    1        -0.1858505639E+01      0.5543854796E+01
          0                 2           2             4    8     1       0.1133087004E-01       4    8    1         0.1858403025E+00      0.5524423729E+00
          0                 3           2             4    8     1      -0.1010521096E-02       4    8    1        -0.1672573004E-01      0.4967106052E-01
          0                 4           1             4    8     1       0.8020823250E-04       4    8    1         0.1339730519E-02      0.3977741849E-02

    ------------------------------------------------
       NWT REQUIRED            4 OUTER ITERATIONS 
       AND A TOTAL OF          7 INNER ITERATIONS.
    ------------------------------------------------

 NO OUTPUT CONTROL FOR STRESS PERIOD    4   TIME STEP   14
 
 SOLVING FOR HEAD 
                                                   Max.-Head-Change                         Max.-Flux-Residual
  Residual-Control   Outer-Iter.   Inner-Iter.     Column Row Layer    Maximum-Head-Change  Column Row Layer    Maximum-Flux-Residual          L2-NORM 
          0                 1           2             4    8     1      -0.1232350146E+00       4    8    1        -0.1823594734E+01      0.5472781093E+01
          0                 2           2             4    8     1       0.1221085673E-01       4    8    1         0.1823477307E+00      0.5459262714E+00
          0                 3           2             4    8     1      -0.1089001801E-02       4    8    1        -0.1641141307E-01      0.4909892490E-01
          0                 4           1             4    8     1       0.8643748402E-04       4    8    1         0.1314553603E-02      0.3932156024E-02

    ------------------------------------------------
       NWT REQUIRED            4 OUTER ITERATIONS 
       AND A TOTAL OF          7 INNER ITERATIONS.
    ------------------------------------------------

 OUTPUT CONTROL FOR STRESS PERIOD    4   TIME STEP   15
    PRINT BUDGET
    PRINT HEAD FOR ALL LAYERS
    SAVE HEAD FOR ALL LAYERS
    SAVE BUDGET

            WELLS   PERIOD    4   STEP  15
 WELL      1   LAYER   1   ROW     6   COL     4   RATE    -4.00000    
 WELL      2   LAYER   1   ROW     6   COL     5   RATE    -4.00000    
 WELL      3   LAYER   1   ROW     7   COL     4   RATE    -4.00000    
 WELL      4   LAYER   1   ROW     7   COL     5   RATE    -4.00000    
 WELL      5   LAYER   1   ROW     8   COL     4   RATE    -4.00000    
 WELL      6   LAYER   1   ROW     8   COL     5   RATE    -4.00000    
 WELL      7   LAYER   1   ROW     9   COL     4   RATE    -4.00000    
 WELL      8   LAYER   1   ROW     9   COL     5   RATE    -4.00000    
 WELL      9   LAYER   1   ROW    10   COL     4   RATE    -4.00000    
 WELL     10   LAYER   1   ROW    10   COL     5   RATE    -4.00000    

  HEAD DEP BOUNDS   PERIOD    4   STEP    15
 BOUNDARY      1   LAYER   1   ROW    13   COL     1   RATE   -0.296343    
 BOUNDARY      2   LAYER   1   ROW    14   COL     9   RATE    0.300895    



 STREAM LISTING     PERIOD      4   STEP       15

 LAYER ROW COL. STREAM  RCH.  FLOW INTO     FLOW TO   FLOW OUT OF   OVRLND.     DIRECT     STREAM       STREAM     STREAM     STREAM   STREAMBED  STREAMBED
                SEG.NO.  NO.  STRM. RCH.    AQUIFER    STRM. RCH.    RUNOFF     PRECIP       ET          HEAD       DEPTH      WIDTH   CONDCTNC.   GRADIENT

   1    1    1     1     1    2.5000E+01  2.4841E-01   2.6177E+01  1.425E+00  0.000E+00  0.000E+00  1.09424E+03  1.189E+00  1.318E+01  5.930E-02  1.396E+00
   1    2    2     1     2    2.6177E+01  3.9690E-01   2.7997E+01  2.217E+00  0.000E+00  0.000E+00  1.08927E+03  1.210E+00  1.347E+01  9.427E-02  1.403E+00
   1    3    3     1     3    2.7997E+01  3.5002E-01   2.9547E+01  1.900E+00  0.000E+00  0.000E+00  1.08365E+03  1.234E+00  1.378E+01  8.268E-02  1.411E+00
   1    3    4     1     4    2.9547E+01  3.3150E-01   3.0973E+01  1.758E+00  0.000E+00  0.000E+00  1.07866E+03  1.252E+00  1.405E+01  7.796E-02  1.417E+00
   1    4    5     2     1    2.0973E+01  0.0000E+00   2.2371E+01  1.398E+00  0.000E+00  0.000E+00  1.07304E+03  1.108E+00  1.200E+01  0.000E+00  1.369E+00
   1    5    6     2     2    2.2371E+01  0.0000E+00   2.3447E+01  1.075E+00  0.000E+00  0.000E+00  1.06766E+03  1.146E+00  1.200E+01  0.000E+00  1.382E+00
   1    6    6     2     3    2.3447E+01  0.0000E+00   2.4522E+01  1.075E+00  0.000E+00  0.000E+00  1.06297E+03  1.178E+00  1.200E+01  0.000E+00  1.393E+00
   1    7    6     2     4    2.4522E+01  0.0000E+00   2.5598E+01  1.075E+00  0.000E+00  0.000E+00  1.05828E+03  1.209E+00  1.200E+01  0.000E+00  1.403E+00
   1    8    6     2     5    2.5598E+01  0.0000E+00   2.6673E+01  1.075E+00  0.000E+00  0.000E+00  1.05360E+03  1.240E+00  1.200E+01  0.000E+00  1.413E+00
   1    3    5     3     1    1.0000E+01  2.8252E-01   1.4308E+01  4.591E+00  0.000E+00  0.000E+00  1.07555E+03  1.909E+00  9.636E+00  7.227E-02  1.955E+00
   1    3    6     3     2    1.4308E+01  2.4905E-01   1.8650E+01  4.591E+00  0.000E+00  0.000E+00  1.07264E+03  1.727E+00  8.909E+00  6.682E-02  1.864E+00
   1    3    7     3     3    1.8650E+01  1.9718E-01   2.2585E+01  4.132E+00  0.000E+00  0.000E+00  1.06987E+03  1.555E+00  8.218E+00  5.547E-02  1.777E+00
   1    4    8     3     4    2.2585E+01  2.2567E-01   2.7868E+01  5.509E+00  0.000E+00  0.000E+00  1.06682E+03  1.364E+00  7.455E+00  6.709E-02  1.682E+00
   1    5    8     3     5    2.7868E+01  1.5790E-01   3.2301E+01  4.591E+00  0.000E+00  0.000E+00  1.06362E+03  1.164E+00  6.655E+00  4.991E-02  1.582E+00
   1    6    8     3     6    3.2301E+01  5.5980E-02   3.4082E+01  1.836E+00  0.000E+00  0.000E+00  1.06158E+03  1.036E+00  6.145E+00  1.844E-02  1.518E+00
   1    5   10     4     1    1.0000E+01  0.0000E+00   1.0994E+01  9.943E-01  0.000E+00  0.000E+00  1.07838E+03  6.574E-01  1.000E+01  0.000E+00  1.219E+00
   1    5    9     4     2    1.0994E+01  0.0000E+00   1.2983E+01  1.989E+00  0.000E+00  0.000E+00  1.07162E+03  7.119E-01  1.000E+01  0.000E+00  1.237E+00
   1    6    8     4     3    1.2983E+01  0.0000E+00   1.4375E+01  1.392E+00  0.000E+00  0.000E+00  1.06395E+03  7.706E-01  1.000E+01  0.000E+00  1.257E+00
   1    6    8     5     1    4.8457E+01  6.5477E-01   4.9495E+01  1.693E+00  0.000E+00  0.000E+00  1.05917E+03  1.171E+00  3.924E+01  1.570E-01  1.390E+00
   1    7    7     5     2    4.9495E+01  8.3198E-01   5.0780E+01  2.117E+00  0.000E+00  0.000E+00  1.05468E+03  1.181E+00  3.980E+01  1.990E-01  1.394E+00
   1    8    7     5     3    5.0780E+01  5.9119E-01   5.1670E+01  1.482E+00  0.000E+00  0.000E+00  1.05044E+03  1.190E+00  4.032E+01  1.411E-01  1.397E+00
   1    8    6     5     4    5.1670E+01  4.2666E-01   5.2302E+01  1.058E+00  0.000E+00  0.000E+00  1.04745E+03  1.196E+00  4.067E+01  1.017E-01  1.399E+00
   1    9    6     6     1    7.8975E+01  0.0000E+00   8.2316E+01  3.341E+00  0.000E+00  0.000E+00  1.04519E+03  2.466E+00  1.200E+01  0.000E+00  1.822E+00
   1   10    7     6     2    8.2316E+01  0.0000E+00   8.5657E+01  3.341E+00  0.000E+00  0.000E+00  1.04071E+03  2.526E+00  1.200E+01  0.000E+00  1.842E+00
   1   11    7     6     3    8.5657E+01  0.0000E+00   8.8998E+01  3.341E+00  0.000E+00  0.000E+00  1.03622E+03  2.586E+00  1.200E+01  0.000E+00  1.862E+00
   1   12    7     6     4    8.8998E+01  0.0000E+00   9.2339E+01  3.341E+00  0.000E+00  0.000E+00  1.03174E+03  2.645E+00  1.200E+01  0.000E+00  1.882E+00
   1   13    7     6     5    9.2339E+01  0.0000E+00   9.3675E+01  1.336E+00  0.000E+00  0.000E+00  1.02859E+03  2.686E+00  1.200E+01  0.000E+00  1.194E+00
   1   14    9     7     1    1.5000E+02  1.5640E+00   1.5159E+02  3.153E+00  0.000E+00  0.000E+00  1.03988E+03  2.295E+00  5.533E+01  5.597E-01  9.315E-01
   1   13    8     7     2    1.5159E+02  2.5436E+00   1.5251E+02  3.469E+00  0.000E+00  0.000E+00  1.03480E+03  2.302E+00  5.536E+01  6.160E-01  1.376E+00
   1   13    7     7     3    1.5251E+02  2.6397E+00   1.5303E+02  3.153E+00  0.000E+00  0.000E+00  1.02973E+03  2.306E+00  5.538E+01  5.602E-01  1.571E+00
   1   13    6     8     1    2.4670E+02  2.5069E+00   2.6083E+02  1.663E+01  0.000E+00  0.000E+00  1.02531E+03  3.431E+00  4.975E+01  5.069E-01  1.648E+00
   1   13    5     8     2    2.6083E+02  1.8713E+00   2.7559E+02  1.663E+01  0.000E+00  0.000E+00  1.01913E+03  3.503E+00  5.079E+01  5.176E-01  1.205E+00
   1   13    4     8     3    2.7559E+02  8.0507E-01   2.9142E+02  1.663E+01  0.000E+00  0.000E+00  1.01295E+03  3.576E+00  5.186E+01  5.284E-01  5.078E-01
   1   13    3     8     4    2.9142E+02  3.8876E-03   3.0805E+02  1.663E+01  0.000E+00  0.000E+00  1.00678E+03  3.652E+00  5.295E+01  5.396E-01  2.402E-03
   1   13    2     8     5    3.0805E+02 -6.2421E-01   3.2531E+02  1.663E+01  0.000E+00  0.000E+00  1.00060E+03  3.728E+00  5.405E+01  5.508E+00 -3.777E-02
   1   13    1     8     6    3.2531E+02 -4.5446E-01   3.3574E+02  9.980E+00  0.000E+00  0.000E+00  9.95663E+02  3.788E+00  5.493E+01  3.358E+00 -4.511E-02



 UBDSV3 SAVING "     NETRECHARGE" ON UNIT 100 AT TIME STEP    15, STRESS PERIOD   4
 UBDSV3 SAVING "    NETDISCHARGE" ON UNIT 101 AT TIME STEP    15, STRESS PERIOD   4
 UBDSV3 SAVING "           GW ET" ON UNIT  61 AT TIME STEP    15, STRESS PERIOD   4
 UBDSV3 SAVING "    UZF RECHARGE" ON UNIT  61 AT TIME STEP    15, STRESS PERIOD   4
 UBDSV3 SAVING " SURFACE LEAKAGE" ON UNIT  61 AT TIME STEP    15, STRESS PERIOD   4
 UBDSV3 SAVING "       HORT+DUNN" ON UNIT  61 AT TIME STEP    15, STRESS PERIOD   4
 UBDSV3 SAVING "  STORAGE CHANGE" ON UNIT  61 AT TIME STEP    15, STRESS PERIOD   4


UNSATURATED ZONE PACKAGE VOLUMETRIC BUDGET FOR  TIME STEP    15 STRESS PERIOD    4
  ------------------------------------------------------------------------------



     CUMULATIVE VOLUMES      L**3       RATES FOR THIS TIME STEP      L**3/T
     ------------------                 ------------------------

           IN:                                      IN:
           ---                                      ---
        INFILTRATION =    30484797.5361          INFILTRATION =           2.9000

          OUT:                                     OUT:
          ----                                     ----
              UZF ET =     4852710.8004                UZF ET =           1.0526
        UZF RECHARGE =     7880960.6654          UZF RECHARGE =           0.0341

            IN - OUT =    17751126.0703              IN - OUT =           1.8132

          STORAGE:                                 STORAGE:
          --------                                 --------
      STORAGE CHANGE =    17751124.6578        STORAGE CHANGE =           1.8132

 PERCENT DISCREPANCY IS DIFFERENCE BETWEEN IN-OUT MINUS CHANGE IN STORAGE
 DIVIDED BY THE AVERAGE OF IN AND OUT TIMES 100

 PERCENT DISCREPANCY =           0.00     PERCENT DISCREPANCY =           0.00






1
              HEAD IN LAYER   1 AT END OF TIME STEP    15 IN STRESS PERIOD    4
  -----------------------------------------------------------------------------

           1       2       3       4       5       6       7       8       9      10
 ...................................................................................
   1  1029.26 1025.70 6999.00 6999.00 6999.00 6999.00 6999.00 6999.00 6999.00 6999.00
   2  1026.08 1021.17 1019.16 6999.00 6999.00 1017.61 1017.87 1018.01 6999.00 6999.00
   3  6999.00 1018.17 1017.01 1016.04 1015.94 1016.41 1017.07 1017.24 6999.00 6999.00
   4  1016.14 1016.20 1015.40 1014.41 1014.11 1014.32 1015.15 1016.51 1016.20 6999.00
   5  1015.35 1014.62 1013.61 1012.40 1012.59 1013.44 1014.20 1014.92 1015.23 1015.51
   6  1014.57 1013.53 1011.84 1009.15 1009.77 1012.39 1013.85 1014.83 1015.17 1015.86
   7  1014.04 1012.72 1010.84 1007.73 1008.64 1011.86 1013.82 1014.44 1015.39 6999.00
   8  6999.00 1012.10 1010.45 1007.26 1008.34 1011.77 1013.72 1014.69 1016.32 6999.00
   9  6999.00 1011.59 1010.38 1007.55 1008.70 1011.98 1013.88 1015.52 1017.89 6999.00
  10  6999.00 1011.01 1010.56 1008.72 1009.91 1013.03 1014.83 1016.91 1019.60 1020.48
  11  6999.00 1009.69 1010.59 1011.36 1012.78 1015.01 1016.92 1019.65 1022.83 6999.00
  12  1000.91 1005.79 1009.27 1011.76 1014.31 1017.28 1019.92 1024.62 1028.48 6999.00
  13   995.80 1000.72 1006.77 1011.43 1015.51 1020.36 1025.01 1030.67 1033.71 6999.00
  14  6999.00 1005.63 1008.38 1012.35 1016.37 1020.70 1025.91 1032.14 1037.08 6999.00
  15  6999.00 6999.00 1011.82 1014.18 1017.20 1019.93 6999.00 6999.00 6999.00 6999.00

 HEAD WILL BE SAVED ON UNIT   58 AT END OF TIME STEP   15, STRESS PERIOD    4
1
  VOLUMETRIC BUDGET FOR ENTIRE MODEL AT END OF TIME STEP   15, STRESS PERIOD   4
  ------------------------------------------------------------------------------

     CUMULATIVE VOLUMES      L**3       RATES FOR THIS TIME STEP      L**3/T
     ------------------                 ------------------------

           IN:                                      IN:
           ---                                      ---
             STORAGE =   257095424.0000               STORAGE =          30.9559
       CONSTANT HEAD =           0.0000         CONSTANT HEAD =           0.0000
               WELLS =           0.0000                 WELLS =           0.0000
     HEAD DEP BOUNDS =     3157074.2500       HEAD DEP BOUNDS =           0.3009
      STREAM LEAKAGE =   161147248.0000        STREAM LEAKAGE =          16.9343
        UZF RECHARGE =     7880964.5000          UZF RECHARGE =       3.4126E-02
               GW ET =           0.0000                 GW ET =           0.0000
     SURFACE LEAKAGE =           0.0000       SURFACE LEAKAGE =           0.0000

            TOTAL IN =   429280704.0000              TOTAL IN =          48.2252

          OUT:                                     OUT:
          ----                                     ----
             STORAGE =     5854835.0000               STORAGE =           0.6941
       CONSTANT HEAD =           0.0000         CONSTANT HEAD =           0.0000
               WELLS =   341640000.0000                 WELLS =          40.0000
     HEAD DEP BOUNDS =     3015657.0000       HEAD DEP BOUNDS =           0.2963
      STREAM LEAKAGE =    26646766.0000        STREAM LEAKAGE =           1.0787
        UZF RECHARGE =           0.0000          UZF RECHARGE =           0.0000
               GW ET =    52134316.0000                 GW ET =           6.1577
     SURFACE LEAKAGE =           0.0000       SURFACE LEAKAGE =           0.0000

           TOTAL OUT =   429291552.0000             TOTAL OUT =          48.2267

            IN - OUT =      -10848.0000              IN - OUT =      -1.5602E-03

 PERCENT DISCREPANCY =          -0.00     PERCENT DISCREPANCY =          -0.00






         TIME SUMMARY AT END OF TIME STEP   15 IN STRESS PERIOD    4
                    SECONDS     MINUTES      HOURS       DAYS        YEARS
                    -----------------------------------------------------------
   TIME STEP LENGTH 3.14103E+05  5235.0      87.251      3.6354     9.95332E-03
 STRESS PERIOD TIME 2.62800E+06  43800.      730.00      30.417     8.32763E-02
         TOTAL TIME 1.05120E+07 1.75200E+05  2920.0      121.67     0.33311    
1
1
                            STRESS PERIOD NO.    5, LENGTH =   2628000.    
                            -----------------------------------------------

                              NUMBER OF TIME STEPS =    15

                               MULTIPLIER FOR DELT =     1.100

                            INITIAL TIME STEP SIZE =   82713.07    

 WELL NO.  LAYER   ROW   COL   STRESS RATE         
 --------------------------------------------------
      1      1      6      4      -3.000    
      2      1      6      5      -3.000    
      3      1      7      4      -3.000    
      4      1      7      5      -3.000    
      5      1      8      4      -3.000    
      6      1      8      5      -3.000    
      7      1      9      4      -3.000    
      8      1      9      5      -3.000    
      9      1     10      4      -3.000    
     10      1     10      5      -3.000    

     10 WELLS

 REUSING NON-PARAMETER GHB CELLS FROM LAST STRESS PERIOD

      2 GHB CELLS

 REUSING STREAM SEGMENT DATA FROM LAST STRESS PERIOD



            AREAL INFILTRATION RATE
 READING ON UNIT   19 WITH FORMAT: (10F4.0)            

            1           2           3           4           5           6           7           8           9          10
 ........................................................................................................................
   1   5.0000E-09  1.0000E-08   0.000       0.000       0.000       0.000       0.000       0.000       0.000       0.000    
   2   1.0000E-08  5.0000E-09  1.0000E-08   0.000       0.000      4.0000E-08  4.0000E-08  2.5000E-08   0.000       0.000    
   3    0.000      2.5000E-08  5.0000E-09  5.0000E-09  4.0000E-08  4.0000E-08  2.5000E-08  2.5000E-08   0.000       0.000    
   4   4.0000E-08  2.5000E-08  5.0000E-09  5.0000E-09  5.0000E-09  5.0000E-09  5.0000E-09  5.0000E-09  1.0000E-08   0.000    
   5   4.0000E-08  2.5000E-08  5.0000E-09  5.0000E-09  5.0000E-09  5.0000E-09  5.0000E-09  5.0000E-09  5.0000E-09  5.0000E-09
   6   4.0000E-08  2.5000E-08  2.5000E-08  1.0000E-08  1.0000E-08  5.0000E-09  5.0000E-09  5.0000E-09  5.0000E-09  2.5000E-08
   7   4.0000E-08  2.5000E-08  2.5000E-08  1.0000E-08  1.0000E-08  5.0000E-09  5.0000E-09  1.0000E-08  1.0000E-08   0.000    
   8    0.000      2.5000E-08  2.5000E-08  1.0000E-08  1.0000E-08  5.0000E-09  5.0000E-09  1.0000E-08  2.5000E-08   0.000    
   9    0.000      2.5000E-08  2.5000E-08  1.0000E-08  1.0000E-08  5.0000E-09  5.0000E-09  1.0000E-08  2.5000E-08   0.000    
  10    0.000      2.5000E-08  2.5000E-08  1.0000E-08  1.0000E-08  5.0000E-09  5.0000E-09  1.0000E-08  2.5000E-08  4.0000E-08
  11    0.000      5.0000E-09  5.0000E-09  5.0000E-09  5.0000E-09  5.0000E-09  5.0000E-09  1.0000E-08  2.5000E-08   0.000    
  12   5.0000E-09  5.0000E-09  5.0000E-09  5.0000E-09  5.0000E-09  5.0000E-09  5.0000E-09  5.0000E-09  1.0000E-08   0.000    
  13   5.0000E-09  5.0000E-09  1.0000E-08  1.0000E-08  1.0000E-08  1.0000E-08  1.0000E-08  5.0000E-09  5.0000E-09   0.000    
  14    0.000      1.0000E-08  2.5000E-08  2.5000E-08  2.5000E-08  2.5000E-08  2.5000E-08  1.0000E-08  5.0000E-09   0.000    
  15    0.000       0.000      4.0000E-08  4.0000E-08  4.0000E-08  4.0000E-08   0.000       0.000       0.000       0.000    

USING ET RATE FROM PREVIOUS STRESS PERIOD. CURRENT PERIOD IS:       5

 USING ET EXTINCTION DEPTH FROM PREVIOUS STRESS PERIOD. CURRENT PERIOD IS:       5

 USING EXTINCTION WATER CONTENT FROM PREVIOUS STRESS PERIOD. CURRENT PERIOD IS:       5
 
 SOLVING FOR HEAD 
                                                   Max.-Head-Change                         Max.-Flux-Residual
  Residual-Control   Outer-Iter.   Inner-Iter.     Column Row Layer    Maximum-Head-Change  Column Row Layer    Maximum-Flux-Residual          L2-NORM 
          0                 1           2             2   13     1      -0.3837235286E-01       2   13    1        -0.2287903906E+01      0.4798431507E+01
          0                 2           2             2   13     1       0.3710057038E-02       2   13    1         0.2232155620E+00      0.4750260203E+00
          0                 3           2             2   13     1      -0.3219733136E-03       2   13    1        -0.1954775902E-01      0.4229265446E-01
          0                 4           1             2   13     1       0.2478063529E-04       2   13    1         0.1518143538E-02      0.3347895626E-02

    ------------------------------------------------
       NWT REQUIRED            4 OUTER ITERATIONS 
       AND A TOTAL OF          7 INNER ITERATIONS.
    ------------------------------------------------

 NO OUTPUT CONTROL FOR STRESS PERIOD    5   TIME STEP    1
 
 SOLVING FOR HEAD 
                                                   Max.-Head-Change                         Max.-Flux-Residual
  Residual-Control   Outer-Iter.   Inner-Iter.     Column Row Layer    Maximum-Head-Change  Column Row Layer    Maximum-Flux-Residual          L2-NORM 
          0                 1           2             2   13     1      -0.3872963453E-01       2   13    1        -0.2115310956E+01      0.4611937106E+01
          0                 2           2             2   13     1       0.3735511148E-02       2   13    1         0.2058723180E+00      0.4564573659E+00
          0                 3           2             2   13     1      -0.3232637533E-03       2   13    1        -0.1797758189E-01      0.4062888319E-01
          0                 4           1             2   13     1       0.2479848388E-04       2   13    1         0.1391595372E-02      0.3215610262E-02

    ------------------------------------------------
       NWT REQUIRED            4 OUTER ITERATIONS 
       AND A TOTAL OF          7 INNER ITERATIONS.
    ------------------------------------------------

 NO OUTPUT CONTROL FOR STRESS PERIOD    5   TIME STEP    2
 
 SOLVING FOR HEAD 
                                                   Max.-Head-Change                         Max.-Flux-Residual
  Residual-Control   Outer-Iter.   Inner-Iter.     Column Row Layer    Maximum-Head-Change  Column Row Layer    Maximum-Flux-Residual          L2-NORM 
          0                 1           2             2   13     1      -0.3877613516E-01       2   13    1        -0.1941311095E+01      0.4431222372E+01
          0                 2           2             2   13     1       0.3729767728E-02       2   13    1         0.1884171703E+00      0.4385162523E+00
          0                 3           2             2   13     1      -0.3217743766E-03       2   13    1        -0.1640241906E-01      0.3902820006E-01
          0                 4           1             2   13     1       0.2461277436E-04       2   13    1         0.1265970660E-02      0.3089146041E-02

    ------------------------------------------------
       NWT REQUIRED            4 OUTER ITERATIONS 
       AND A TOTAL OF          7 INNER ITERATIONS.
    ------------------------------------------------

 NO OUTPUT CONTROL FOR STRESS PERIOD    5   TIME STEP    3
 
 SOLVING FOR HEAD 
                                                   Max.-Head-Change                         Max.-Flux-Residual
  Residual-Control   Outer-Iter.   Inner-Iter.     Column Row Layer    Maximum-Head-Change  Column Row Layer    Maximum-Flux-Residual          L2-NORM 
          0                 1           2             2   13     1      -0.3848437757E-01       2   13    1        -0.1767350758E+01      0.4258409116E+01
          0                 2           2             2   13     1       0.3690559695E-02       2   13    1         0.1710125180E+00      0.4214246165E+00
          0                 3           2             2   13     1      -0.3173000427E-03       2   13    1        -0.1483585617E-01      0.3750989820E-01
          0                 4           1             2   13     1       0.2413081502E-04       2   13    1         0.1138424313E-02      0.2967882089E-02

    ------------------------------------------------
       NWT REQUIRED            4 OUTER ITERATIONS 
       AND A TOTAL OF          7 INNER ITERATIONS.
    ------------------------------------------------

 NO OUTPUT CONTROL FOR STRESS PERIOD    5   TIME STEP    4
 
 SOLVING FOR HEAD 
                                                   Max.-Head-Change                         Max.-Flux-Residual
  Residual-Control   Outer-Iter.   Inner-Iter.     Column Row Layer    Maximum-Head-Change  Column Row Layer    Maximum-Flux-Residual          L2-NORM 
          0                 1           2             2   13     1      -0.3783428101E-01       2   13    1        -0.1594992332E+01      0.4095508363E+01
          0                 2           2             2   13     1       0.3616226779E-02       2   13    1         0.1538201251E+00      0.4053871332E+00
          0                 3           2             2   13     1      -0.3097791695E-03       2   13    1        -0.1329544439E-01      0.3609366060E-01
          0                 4           1             2   13     1       0.2350611561E-04       2   13    1         0.1017910156E-02      0.2858378887E-02

    ------------------------------------------------
       NWT REQUIRED            4 OUTER ITERATIONS 
       AND A TOTAL OF          7 INNER ITERATIONS.
    ------------------------------------------------

 OUTPUT CONTROL FOR STRESS PERIOD    5   TIME STEP    5
    PRINT BUDGET
    SAVE BUDGET

            WELLS   PERIOD    5   STEP   5
 WELL      1   LAYER   1   ROW     6   COL     4   RATE    -3.00000    
 WELL      2   LAYER   1   ROW     6   COL     5   RATE    -3.00000    
 WELL      3   LAYER   1   ROW     7   COL     4   RATE    -3.00000    
 WELL      4   LAYER   1   ROW     7   COL     5   RATE    -3.00000    
 WELL      5   LAYER   1   ROW     8   COL     4   RATE    -3.00000    
 WELL      6   LAYER   1   ROW     8   COL     5   RATE    -3.00000    
 WELL      7   LAYER   1   ROW     9   COL     4   RATE    -3.00000    
 WELL      8   LAYER   1   ROW     9   COL     5   RATE    -3.00000    
 WELL      9   LAYER   1   ROW    10   COL     4   RATE    -3.00000    
 WELL     10   LAYER   1   ROW    10   COL     5   RATE    -3.00000    

  HEAD DEP BOUNDS   PERIOD    5   STEP     5
 BOUNDARY      1   LAYER   1   ROW    13   COL     1   RATE   -0.292010    
 BOUNDARY      2   LAYER   1   ROW    14   COL     9   RATE    0.300956    



 STREAM LISTING     PERIOD      5   STEP        5

 LAYER ROW COL. STREAM  RCH.  FLOW INTO     FLOW TO   FLOW OUT OF   OVRLND.     DIRECT     STREAM       STREAM     STREAM     STREAM   STREAMBED  STREAMBED
                SEG.NO.  NO.  STRM. RCH.    AQUIFER    STRM. RCH.    RUNOFF     PRECIP       ET          HEAD       DEPTH      WIDTH   CONDCTNC.   GRADIENT

   1    1    1     1     1    2.5000E+01  2.4590E-01   2.5081E+01  3.270E-01  0.000E+00  0.000E+00  1.09423E+03  1.181E+00  1.307E+01  5.882E-02  1.394E+00
   1    2    2     1     2    2.5081E+01  3.8325E-01   2.5207E+01  5.087E-01  0.000E+00  0.000E+00  1.08924E+03  1.182E+00  1.309E+01  9.164E-02  1.394E+00
   1    3    3     1     3    2.5207E+01  3.2921E-01   2.5313E+01  4.360E-01  0.000E+00  0.000E+00  1.08360E+03  1.184E+00  1.311E+01  7.868E-02  1.395E+00
   1    3    4     1     4    2.5313E+01  3.0510E-01   2.5412E+01  4.033E-01  0.000E+00  0.000E+00  1.07859E+03  1.186E+00  1.313E+01  7.289E-02  1.395E+00
   1    4    5     2     1    1.5412E+01  0.0000E+00   1.5706E+01  2.943E-01  0.000E+00  0.000E+00  1.07284E+03  9.085E-01  1.200E+01  0.000E+00  1.303E+00
   1    5    6     2     2    1.5706E+01  0.0000E+00   1.5932E+01  2.264E-01  0.000E+00  0.000E+00  1.06743E+03  9.176E-01  1.200E+01  0.000E+00  1.306E+00
   1    6    6     2     3    1.5932E+01  0.0000E+00   1.6159E+01  2.264E-01  0.000E+00  0.000E+00  1.06272E+03  9.255E-01  1.200E+01  0.000E+00  1.308E+00
   1    7    6     2     4    1.6159E+01  0.0000E+00   1.6385E+01  2.264E-01  0.000E+00  0.000E+00  1.05801E+03  9.333E-01  1.200E+01  0.000E+00  1.311E+00
   1    8    6     2     5    1.6385E+01  0.0000E+00   1.6612E+01  2.264E-01  0.000E+00  0.000E+00  1.05330E+03  9.410E-01  1.200E+01  0.000E+00  1.314E+00
   1    3    5     3     1    1.0000E+01  2.8252E-01   1.0831E+01  1.114E+00  0.000E+00  0.000E+00  1.07555E+03  1.909E+00  9.636E+00  7.227E-02  1.955E+00
   1    3    6     3     2    1.0831E+01  2.4905E-01   1.1696E+01  1.114E+00  0.000E+00  0.000E+00  1.07264E+03  1.727E+00  8.909E+00  6.682E-02  1.864E+00
   1    3    7     3     3    1.1696E+01  1.9718E-01   1.2501E+01  1.002E+00  0.000E+00  0.000E+00  1.06987E+03  1.555E+00  8.218E+00  5.547E-02  1.777E+00
   1    4    8     3     4    1.2501E+01  2.2567E-01   1.3611E+01  1.336E+00  0.000E+00  0.000E+00  1.06682E+03  1.364E+00  7.455E+00  6.709E-02  1.682E+00
   1    5    8     3     5    1.3611E+01  1.5790E-01   1.4567E+01  1.114E+00  0.000E+00  0.000E+00  1.06362E+03  1.164E+00  6.655E+00  4.991E-02  1.582E+00
   1    6    8     3     6    1.4567E+01  5.5980E-02   1.4957E+01  4.455E-01  0.000E+00  0.000E+00  1.06158E+03  1.036E+00  6.145E+00  1.844E-02  1.518E+00
   1    5   10     4     1    1.0000E+01  0.0000E+00   1.0227E+01  2.273E-01  0.000E+00  0.000E+00  1.07837E+03  6.429E-01  1.000E+01  0.000E+00  1.214E+00
   1    5    9     4     2    1.0227E+01  0.0000E+00   1.0682E+01  4.545E-01  0.000E+00  0.000E+00  1.07156E+03  6.558E-01  1.000E+01  0.000E+00  1.219E+00
   1    6    8     4     3    1.0682E+01  0.0000E+00   1.1000E+01  3.182E-01  0.000E+00  0.000E+00  1.06385E+03  6.702E-01  1.000E+01  0.000E+00  1.223E+00
   1    6    8     5     1    2.5957E+01  4.2216E-01   2.5928E+01  3.933E-01  0.000E+00  0.000E+00  1.05894E+03  9.376E-01  2.680E+01  1.072E-01  1.313E+00
   1    7    7     5     2    2.5928E+01  5.2726E-01   2.5892E+01  4.917E-01  0.000E+00  0.000E+00  1.05444E+03  9.372E-01  2.678E+01  1.339E-01  1.312E+00
   1    8    7     5     3    2.5892E+01  3.6879E-01   2.5868E+01  3.442E-01  0.000E+00  0.000E+00  1.05019E+03  9.368E-01  2.676E+01  9.368E-02  1.312E+00
   1    8    6     5     4    2.5868E+01  2.6327E-01   2.5850E+01  2.458E-01  0.000E+00  0.000E+00  1.04719E+03  9.366E-01  2.675E+01  6.688E-02  1.312E+00
   1    9    6     6     1    4.2462E+01  0.0000E+00   4.3246E+01  7.841E-01  0.000E+00  0.000E+00  1.04441E+03  1.687E+00  1.200E+01  0.000E+00  1.562E+00
   1   10    7     6     2    4.3246E+01  0.0000E+00   4.4030E+01  7.841E-01  0.000E+00  0.000E+00  1.03989E+03  1.706E+00  1.200E+01  0.000E+00  1.569E+00
   1   11    7     6     3    4.4030E+01  0.0000E+00   4.4814E+01  7.841E-01  0.000E+00  0.000E+00  1.03536E+03  1.724E+00  1.200E+01  0.000E+00  1.575E+00
   1   12    7     6     4    4.4814E+01  0.0000E+00   4.5598E+01  7.841E-01  0.000E+00  0.000E+00  1.03083E+03  1.742E+00  1.200E+01  0.000E+00  1.581E+00
   1   13    7     6     5    4.5598E+01  0.0000E+00   4.5912E+01  3.136E-01  0.000E+00  0.000E+00  1.02766E+03  1.755E+00  1.200E+01  0.000E+00  8.850E-01
   1   14    9     7     1    1.5000E+02  1.5604E+00   1.4917E+02  7.339E-01  0.000E+00  0.000E+00  1.03987E+03  2.289E+00  5.530E+01  5.594E-01  9.299E-01
   1   13    8     7     2    1.4917E+02  2.5285E+00   1.4745E+02  8.073E-01  0.000E+00  0.000E+00  1.03478E+03  2.282E+00  5.527E+01  6.149E-01  1.371E+00
   1   13    7     7     3    1.4745E+02  2.6159E+00   1.4557E+02  7.339E-01  0.000E+00  0.000E+00  1.02969E+03  2.273E+00  5.523E+01  5.586E-01  1.561E+00
   1   13    6     8     1    1.9148E+02  2.1214E+00   1.9334E+02  3.978E+00  0.000E+00  0.000E+00  1.02497E+03  3.093E+00  4.484E+01  4.570E-01  1.548E+00
   1   13    5     8     2    1.9334E+02  1.4953E+00   1.9582E+02  3.978E+00  0.000E+00  0.000E+00  1.01873E+03  3.106E+00  4.503E+01  4.589E-01  1.086E+00
   1   13    4     8     3    1.9582E+02  5.0991E-01   1.9929E+02  3.978E+00  0.000E+00  0.000E+00  1.01250E+03  3.123E+00  4.529E+01  4.615E-01  3.683E-01
   1   13    3     8     4    1.9929E+02 -1.5950E+00   2.0486E+02  3.978E+00  0.000E+00  0.000E+00  1.00627E+03  3.150E+00  4.567E+01  4.654E+00 -1.142E-01
   1   13    2     8     5    2.0486E+02 -2.2672E+00   2.1111E+02  3.978E+00  0.000E+00  0.000E+00  1.00006E+03  3.184E+00  4.617E+01  4.705E+00 -1.606E-01
   1   13    1     8     6    2.1111E+02 -1.6978E+00   2.1519E+02  2.387E+00  0.000E+00  0.000E+00  9.95089E+02  3.214E+00  4.660E+01  2.849E+00 -1.986E-01



 UBDSV3 SAVING "     NETRECHARGE" ON UNIT 100 AT TIME STEP     5, STRESS PERIOD   5
 UBDSV3 SAVING "    NETDISCHARGE" ON UNIT 101 AT TIME STEP     5, STRESS PERIOD   5
 UBDSV3 SAVING "           GW ET" ON UNIT  61 AT TIME STEP     5, STRESS PERIOD   5
 UBDSV3 SAVING "    UZF RECHARGE" ON UNIT  61 AT TIME STEP     5, STRESS PERIOD   5
 UBDSV3 SAVING " SURFACE LEAKAGE" ON UNIT  61 AT TIME STEP     5, STRESS PERIOD   5
 UBDSV3 SAVING "       HORT+DUNN" ON UNIT  61 AT TIME STEP     5, STRESS PERIOD   5
 UBDSV3 SAVING "  STORAGE CHANGE" ON UNIT  61 AT TIME STEP     5, STRESS PERIOD   5


UNSATURATED ZONE PACKAGE VOLUMETRIC BUDGET FOR  TIME STEP     5 STRESS PERIOD    5
  ------------------------------------------------------------------------------



     CUMULATIVE VOLUMES      L**3       RATES FOR THIS TIME STEP      L**3/T
     ------------------                 ------------------------

           IN:                                      IN:
           ---                                      ---
        INFILTRATION =    31949215.0957          INFILTRATION =           2.9000

          OUT:                                     OUT:
          ----                                     ----
              UZF ET =     5400592.9496                UZF ET =           1.1004
        UZF RECHARGE =     7880960.6654          UZF RECHARGE =       0.0000E+00

            IN - OUT =    18667661.4807              IN - OUT =           1.7996

          STORAGE:                                 STORAGE:
          --------                                 --------
      STORAGE CHANGE =    18667660.0612        STORAGE CHANGE =           1.7996

 PERCENT DISCREPANCY IS DIFFERENCE BETWEEN IN-OUT MINUS CHANGE IN STORAGE
 DIVIDED BY THE AVERAGE OF IN AND OUT TIMES 100

 PERCENT DISCREPANCY =           0.00     PERCENT DISCREPANCY =           0.00






1
  VOLUMETRIC BUDGET FOR ENTIRE MODEL AT END OF TIME STEP    5, STRESS PERIOD   5
  ------------------------------------------------------------------------------

     CUMULATIVE VOLUMES      L**3       RATES FOR THIS TIME STEP      L**3/T
     ------------------                 ------------------------

           IN:                                      IN:
           ---                                      ---
             STORAGE =   270999648.0000               STORAGE =          26.8586
       CONSTANT HEAD =           0.0000         CONSTANT HEAD =           0.0000
               WELLS =           0.0000                 WELLS =           0.0000
     HEAD DEP BOUNDS =     3309036.2500       HEAD DEP BOUNDS =           0.3010
      STREAM LEAKAGE =   168632400.0000        STREAM LEAKAGE =          14.8447
        UZF RECHARGE =     7880964.5000          UZF RECHARGE =           0.0000
               GW ET =           0.0000                 GW ET =           0.0000
     SURFACE LEAKAGE =           0.0000       SURFACE LEAKAGE =           0.0000

            TOTAL IN =   450822016.0000              TOTAL IN =          42.0042

          OUT:                                     OUT:
          ----                                     ----
             STORAGE =     5854886.5000               STORAGE =           0.0000
       CONSTANT HEAD =           0.0000         CONSTANT HEAD =           0.0000
               WELLS =   356789152.0000                 WELLS =          30.0000
     HEAD DEP BOUNDS =     3163940.7500       HEAD DEP BOUNDS =           0.2920
      STREAM LEAKAGE =    29783302.0000        STREAM LEAKAGE =           5.5601
        UZF RECHARGE =           0.0000          UZF RECHARGE =           0.0000
               GW ET =    55242328.0000                 GW ET =           6.1535
     SURFACE LEAKAGE =           0.0000       SURFACE LEAKAGE =           0.0000

           TOTAL OUT =   450833600.0000             TOTAL OUT =          42.0056

            IN - OUT =      -11584.0000              IN - OUT =      -1.3542E-03

 PERCENT DISCREPANCY =          -0.00     PERCENT DISCREPANCY =          -0.00






         TIME SUMMARY AT END OF TIME STEP    5 IN STRESS PERIOD    5
                    SECONDS     MINUTES      HOURS       DAYS        YEARS
                    -----------------------------------------------------------
   TIME STEP LENGTH 1.21100E+05  2018.3      33.639      1.4016     3.83743E-03
 STRESS PERIOD TIME 5.04972E+05  8416.2      140.27      5.8446     1.60016E-02
         TOTAL TIME 1.10170E+07 1.83616E+05  3060.3      127.51     0.34911    
1
 
 SOLVING FOR HEAD 
                                                   Max.-Head-Change                         Max.-Flux-Residual
  Residual-Control   Outer-Iter.   Inner-Iter.     Column Row Layer    Maximum-Head-Change  Column Row Layer    Maximum-Flux-Residual          L2-NORM 
          0                 1           2             2   13     1      -0.3681551516E-01       2   13    1        -0.1425885029E+01      0.3944273512E+01
          0                 2           2             2   13     1       0.3506043180E-02       2   13    1         0.1370058895E+00      0.3905727503E+00
          0                 3           2             2   13     1      -0.2990867419E-03       2   13    1        -0.1179219349E-01      0.3479120974E-01
          0                 4           1             2   13     1       0.2256900948E-04       2   13    1         0.8977559401E-03      0.2756766951E-02

    ------------------------------------------------
       NWT REQUIRED            4 OUTER ITERATIONS 
       AND A TOTAL OF          7 INNER ITERATIONS.
    ------------------------------------------------

 NO OUTPUT CONTROL FOR STRESS PERIOD    5   TIME STEP    6
 
 SOLVING FOR HEAD 
                                                   Max.-Head-Change                         Max.-Flux-Residual
  Residual-Control   Outer-Iter.   Inner-Iter.     Column Row Layer    Maximum-Head-Change  Column Row Layer    Maximum-Flux-Residual          L2-NORM 
          0                 1           2             2   13     1      -0.3542970978E-01       2   13    1        -0.1261724229E+01      0.3806113025E+01
          0                 2           2             2   13     1       0.3360434818E-02       2   13    1         0.1207370491E+00      0.3771139449E+00
          0                 3           2             2   13     1      -0.2853339714E-03       2   13    1        -0.1034310434E-01      0.3361502227E-01
          0                 4           1             3    8     1       0.2212155998E-04       2   13    1         0.7836623081E-03      0.2665769252E-02

    ------------------------------------------------
       NWT REQUIRED            4 OUTER ITERATIONS 
       AND A TOTAL OF          7 INNER ITERATIONS.
    ------------------------------------------------

 NO OUTPUT CONTROL FOR STRESS PERIOD    5   TIME STEP    7
 
 SOLVING FOR HEAD 
                                                   Max.-Head-Change                         Max.-Flux-Residual
  Residual-Control   Outer-Iter.   Inner-Iter.     Column Row Layer    Maximum-Head-Change  Column Row Layer    Maximum-Flux-Residual          L2-NORM 
          0                 1           2             3    8     1      -0.3442331670E-01       2   13    1        -0.1104200023E+01      0.3681951839E+01
          0                 2           2             3    8     1       0.3411008840E-02       2   13    1         0.1051832666E+00      0.3650835068E+00
          0                 3           2             3    8     1      -0.3042028583E-03       2   13    1        -0.8963421265E-02      0.3257045968E-01
          0                 4           1             3    8     1       0.2414554608E-04       6    8    1         0.6812025040E-03      0.2585202838E-02

    ------------------------------------------------
       NWT REQUIRED            4 OUTER ITERATIONS 
       AND A TOTAL OF          7 INNER ITERATIONS.
    ------------------------------------------------

 NO OUTPUT CONTROL FOR STRESS PERIOD    5   TIME STEP    8
 
 SOLVING FOR HEAD 
                                                   Max.-Head-Change                         Max.-Flux-Residual
  Residual-Control   Outer-Iter.   Inner-Iter.     Column Row Layer    Maximum-Head-Change  Column Row Layer    Maximum-Flux-Residual          L2-NORM 
          0                 1           2             3    8     1      -0.3754185402E-01       2   13    1        -0.9549823000E+00      0.3572256501E+01
          0                 2           2             3    8     1       0.3720019536E-02       6    8    1         0.9215392936E-01      0.3545183470E+00
          0                 3           2             3    8     1      -0.3317613091E-03       6    8    1        -0.8293875984E-02      0.3165900107E-01
          0                 4           1             3    8     1       0.2633294732E-04       6    8    1         0.6643394686E-03      0.2515505466E-02

    ------------------------------------------------
       NWT REQUIRED            4 OUTER ITERATIONS 
       AND A TOTAL OF          7 INNER ITERATIONS.
    ------------------------------------------------

 NO OUTPUT CONTROL FOR STRESS PERIOD    5   TIME STEP    9
 
 SOLVING FOR HEAD 
                                                   Max.-Head-Change                         Max.-Flux-Residual
  Residual-Control   Outer-Iter.   Inner-Iter.     Column Row Layer    Maximum-Head-Change  Column Row Layer    Maximum-Flux-Residual          L2-NORM 
          0                 1           2             3    8     1      -0.4090635457E-01       6    8    1        -0.8977623437E+00      0.3476772273E+01
          0                 2           2             3    8     1       0.4053400739E-02       6    8    1         0.8977387196E-01      0.3453738367E+00
          0                 3           2             3    8     1      -0.3614932065E-03       6    8    1        -0.8079672668E-02      0.3087511324E-01
          0                 4           1             3    8     1       0.2869286175E-04       6    8    1         0.6471817610E-03      0.2456205588E-02

    ------------------------------------------------
       NWT REQUIRED            4 OUTER ITERATIONS 
       AND A TOTAL OF          7 INNER ITERATIONS.
    ------------------------------------------------

 OUTPUT CONTROL FOR STRESS PERIOD    5   TIME STEP   10
    PRINT BUDGET
    SAVE BUDGET

            WELLS   PERIOD    5   STEP  10
 WELL      1   LAYER   1   ROW     6   COL     4   RATE    -3.00000    
 WELL      2   LAYER   1   ROW     6   COL     5   RATE    -3.00000    
 WELL      3   LAYER   1   ROW     7   COL     4   RATE    -3.00000    
 WELL      4   LAYER   1   ROW     7   COL     5   RATE    -3.00000    
 WELL      5   LAYER   1   ROW     8   COL     4   RATE    -3.00000    
 WELL      6   LAYER   1   ROW     8   COL     5   RATE    -3.00000    
 WELL      7   LAYER   1   ROW     9   COL     4   RATE    -3.00000    
 WELL      8   LAYER   1   ROW     9   COL     5   RATE    -3.00000    
 WELL      9   LAYER   1   ROW    10   COL     4   RATE    -3.00000    
 WELL     10   LAYER   1   ROW    10   COL     5   RATE    -3.00000    

  HEAD DEP BOUNDS   PERIOD    5   STEP    10
 BOUNDARY      1   LAYER   1   ROW    13   COL     1   RATE   -0.287092    
 BOUNDARY      2   LAYER   1   ROW    14   COL     9   RATE    0.301049    



 STREAM LISTING     PERIOD      5   STEP       10

 LAYER ROW COL. STREAM  RCH.  FLOW INTO     FLOW TO   FLOW OUT OF   OVRLND.     DIRECT     STREAM       STREAM     STREAM     STREAM   STREAMBED  STREAMBED
                SEG.NO.  NO.  STRM. RCH.    AQUIFER    STRM. RCH.    RUNOFF     PRECIP       ET          HEAD       DEPTH      WIDTH   CONDCTNC.   GRADIENT

   1    1    1     1     1    2.5000E+01  2.4590E-01   2.5081E+01  3.270E-01  0.000E+00  0.000E+00  1.09423E+03  1.181E+00  1.307E+01  5.882E-02  1.394E+00
   1    2    2     1     2    2.5081E+01  3.8325E-01   2.5207E+01  5.087E-01  0.000E+00  0.000E+00  1.08924E+03  1.182E+00  1.309E+01  9.164E-02  1.394E+00
   1    3    3     1     3    2.5207E+01  3.2921E-01   2.5313E+01  4.360E-01  0.000E+00  0.000E+00  1.08360E+03  1.184E+00  1.311E+01  7.868E-02  1.395E+00
   1    3    4     1     4    2.5313E+01  3.0510E-01   2.5412E+01  4.033E-01  0.000E+00  0.000E+00  1.07859E+03  1.186E+00  1.313E+01  7.289E-02  1.395E+00
   1    4    5     2     1    1.5412E+01  0.0000E+00   1.5706E+01  2.943E-01  0.000E+00  0.000E+00  1.07284E+03  9.085E-01  1.200E+01  0.000E+00  1.303E+00
   1    5    6     2     2    1.5706E+01  0.0000E+00   1.5932E+01  2.264E-01  0.000E+00  0.000E+00  1.06743E+03  9.176E-01  1.200E+01  0.000E+00  1.306E+00
   1    6    6     2     3    1.5932E+01  0.0000E+00   1.6159E+01  2.264E-01  0.000E+00  0.000E+00  1.06272E+03  9.255E-01  1.200E+01  0.000E+00  1.308E+00
   1    7    6     2     4    1.6159E+01  0.0000E+00   1.6385E+01  2.264E-01  0.000E+00  0.000E+00  1.05801E+03  9.333E-01  1.200E+01  0.000E+00  1.311E+00
   1    8    6     2     5    1.6385E+01  0.0000E+00   1.6612E+01  2.264E-01  0.000E+00  0.000E+00  1.05330E+03  9.410E-01  1.200E+01  0.000E+00  1.314E+00
   1    3    5     3     1    1.0000E+01  2.8252E-01   1.0831E+01  1.114E+00  0.000E+00  0.000E+00  1.07555E+03  1.909E+00  9.636E+00  7.227E-02  1.955E+00
   1    3    6     3     2    1.0831E+01  2.4905E-01   1.1696E+01  1.114E+00  0.000E+00  0.000E+00  1.07264E+03  1.727E+00  8.909E+00  6.682E-02  1.864E+00
   1    3    7     3     3    1.1696E+01  1.9718E-01   1.2501E+01  1.002E+00  0.000E+00  0.000E+00  1.06987E+03  1.555E+00  8.218E+00  5.547E-02  1.777E+00
   1    4    8     3     4    1.2501E+01  2.2567E-01   1.3611E+01  1.336E+00  0.000E+00  0.000E+00  1.06682E+03  1.364E+00  7.455E+00  6.709E-02  1.682E+00
   1    5    8     3     5    1.3611E+01  1.5790E-01   1.4567E+01  1.114E+00  0.000E+00  0.000E+00  1.06362E+03  1.164E+00  6.655E+00  4.991E-02  1.582E+00
   1    6    8     3     6    1.4567E+01  5.5980E-02   1.4957E+01  4.455E-01  0.000E+00  0.000E+00  1.06158E+03  1.036E+00  6.145E+00  1.844E-02  1.518E+00
   1    5   10     4     1    1.0000E+01  0.0000E+00   1.0227E+01  2.273E-01  0.000E+00  0.000E+00  1.07837E+03  6.429E-01  1.000E+01  0.000E+00  1.214E+00
   1    5    9     4     2    1.0227E+01  0.0000E+00   1.0682E+01  4.545E-01  0.000E+00  0.000E+00  1.07156E+03  6.558E-01  1.000E+01  0.000E+00  1.219E+00
   1    6    8     4     3    1.0682E+01  0.0000E+00   1.1000E+01  3.182E-01  0.000E+00  0.000E+00  1.06385E+03  6.702E-01  1.000E+01  0.000E+00  1.223E+00
   1    6    8     5     1    2.5957E+01  4.2216E-01   2.5928E+01  3.933E-01  0.000E+00  0.000E+00  1.05894E+03  9.376E-01  2.680E+01  1.072E-01  1.313E+00
   1    7    7     5     2    2.5928E+01  5.2726E-01   2.5892E+01  4.917E-01  0.000E+00  0.000E+00  1.05444E+03  9.372E-01  2.678E+01  1.339E-01  1.312E+00
   1    8    7     5     3    2.5892E+01  3.6879E-01   2.5868E+01  3.442E-01  0.000E+00  0.000E+00  1.05019E+03  9.368E-01  2.676E+01  9.368E-02  1.312E+00
   1    8    6     5     4    2.5868E+01  2.6327E-01   2.5850E+01  2.458E-01  0.000E+00  0.000E+00  1.04719E+03  9.366E-01  2.675E+01  6.688E-02  1.312E+00
   1    9    6     6     1    4.2462E+01  0.0000E+00   4.3246E+01  7.841E-01  0.000E+00  0.000E+00  1.04441E+03  1.687E+00  1.200E+01  0.000E+00  1.562E+00
   1   10    7     6     2    4.3246E+01  0.0000E+00   4.4030E+01  7.841E-01  0.000E+00  0.000E+00  1.03989E+03  1.706E+00  1.200E+01  0.000E+00  1.569E+00
   1   11    7     6     3    4.4030E+01  0.0000E+00   4.4814E+01  7.841E-01  0.000E+00  0.000E+00  1.03536E+03  1.724E+00  1.200E+01  0.000E+00  1.575E+00
   1   12    7     6     4    4.4814E+01  0.0000E+00   4.5598E+01  7.841E-01  0.000E+00  0.000E+00  1.03083E+03  1.742E+00  1.200E+01  0.000E+00  1.581E+00
   1   13    7     6     5    4.5598E+01  0.0000E+00   4.5912E+01  3.136E-01  0.000E+00  0.000E+00  1.02766E+03  1.755E+00  1.200E+01  0.000E+00  8.883E-01
   1   14    9     7     1    1.5000E+02  1.5618E+00   1.4917E+02  7.339E-01  0.000E+00  0.000E+00  1.03987E+03  2.289E+00  5.530E+01  5.594E-01  9.307E-01
   1   13    8     7     2    1.4917E+02  2.5309E+00   1.4745E+02  8.073E-01  0.000E+00  0.000E+00  1.03478E+03  2.282E+00  5.527E+01  6.149E-01  1.372E+00
   1   13    7     7     3    1.4745E+02  2.6214E+00   1.4556E+02  7.339E-01  0.000E+00  0.000E+00  1.02969E+03  2.273E+00  5.523E+01  5.586E-01  1.564E+00
   1   13    6     8     1    1.9147E+02  2.1438E+00   1.9331E+02  3.978E+00  0.000E+00  0.000E+00  1.02497E+03  3.092E+00  4.484E+01  4.569E-01  1.564E+00
   1   13    5     8     2    1.9331E+02  1.5218E+00   1.9576E+02  3.978E+00  0.000E+00  0.000E+00  1.01873E+03  3.105E+00  4.503E+01  4.588E-01  1.106E+00
   1   13    4     8     3    1.9576E+02  5.3701E-01   1.9920E+02  3.978E+00  0.000E+00  0.000E+00  1.01250E+03  3.123E+00  4.528E+01  4.614E-01  3.879E-01
   1   13    3     8     4    1.9920E+02 -1.0286E+00   2.0421E+02  3.978E+00  0.000E+00  0.000E+00  1.00627E+03  3.148E+00  4.564E+01  4.651E+00 -7.372E-02
   1   13    2     8     5    2.0421E+02 -1.5746E+00   2.0976E+02  3.978E+00  0.000E+00  0.000E+00  1.00005E+03  3.178E+00  4.609E+01  4.696E+00 -1.118E-01
   1   13    1     8     6    2.0976E+02 -1.3500E+00   2.1350E+02  2.387E+00  0.000E+00  0.000E+00  9.95080E+02  3.205E+00  4.647E+01  2.841E+00 -1.584E-01



 UBDSV3 SAVING "     NETRECHARGE" ON UNIT 100 AT TIME STEP    10, STRESS PERIOD   5
 UBDSV3 SAVING "    NETDISCHARGE" ON UNIT 101 AT TIME STEP    10, STRESS PERIOD   5
 UBDSV3 SAVING "           GW ET" ON UNIT  61 AT TIME STEP    10, STRESS PERIOD   5
 UBDSV3 SAVING "    UZF RECHARGE" ON UNIT  61 AT TIME STEP    10, STRESS PERIOD   5
 UBDSV3 SAVING " SURFACE LEAKAGE" ON UNIT  61 AT TIME STEP    10, STRESS PERIOD   5
 UBDSV3 SAVING "       HORT+DUNN" ON UNIT  61 AT TIME STEP    10, STRESS PERIOD   5
 UBDSV3 SAVING "  STORAGE CHANGE" ON UNIT  61 AT TIME STEP    10, STRESS PERIOD   5


UNSATURATED ZONE PACKAGE VOLUMETRIC BUDGET FOR  TIME STEP    10 STRESS PERIOD    5
  ------------------------------------------------------------------------------



     CUMULATIVE VOLUMES      L**3       RATES FOR THIS TIME STEP      L**3/T
     ------------------                 ------------------------

           IN:                                      IN:
           ---                                      ---
        INFILTRATION =    34307674.3633          INFILTRATION =           2.9000

          OUT:                                     OUT:
          ----                                     ----
              UZF ET =     6322250.9567                UZF ET =           1.1521
        UZF RECHARGE =     7880960.6654          UZF RECHARGE =       0.0000E+00

            IN - OUT =    20104462.7412              IN - OUT =           1.7479

          STORAGE:                                 STORAGE:
          --------                                 --------
      STORAGE CHANGE =    20104461.2973        STORAGE CHANGE =           1.7479

 PERCENT DISCREPANCY IS DIFFERENCE BETWEEN IN-OUT MINUS CHANGE IN STORAGE
 DIVIDED BY THE AVERAGE OF IN AND OUT TIMES 100

 PERCENT DISCREPANCY =           0.00     PERCENT DISCREPANCY =           0.00






1
  VOLUMETRIC BUDGET FOR ENTIRE MODEL AT END OF TIME STEP   10, STRESS PERIOD   5
  ------------------------------------------------------------------------------

     CUMULATIVE VOLUMES      L**3       RATES FOR THIS TIME STEP      L**3/T
     ------------------                 ------------------------

           IN:                                      IN:
           ---                                      ---
             STORAGE =   291938560.0000               STORAGE =          25.1570
       CONSTANT HEAD =           0.0000         CONSTANT HEAD =           0.0000
               WELLS =           0.0000                 WELLS =           0.0000
     HEAD DEP BOUNDS =     3553838.2500       HEAD DEP BOUNDS =           0.3010
      STREAM LEAKAGE =   180747088.0000        STREAM LEAKAGE =          14.9300
        UZF RECHARGE =     7880964.5000          UZF RECHARGE =           0.0000
               GW ET =           0.0000                 GW ET =           0.0000
     SURFACE LEAKAGE =           0.0000       SURFACE LEAKAGE =           0.0000

            TOTAL IN =   484120448.0000              TOTAL IN =          40.3880

          OUT:                                     OUT:
          ----                                     ----
             STORAGE =     5854886.5000               STORAGE =           0.0000
       CONSTANT HEAD =           0.0000         CONSTANT HEAD =           0.0000
               WELLS =   381187008.0000                 WELLS =          30.0000
     HEAD DEP BOUNDS =     3398879.0000       HEAD DEP BOUNDS =           0.2871
      STREAM LEAKAGE =    33447948.0000        STREAM LEAKAGE =           3.9532
        UZF RECHARGE =           0.0000          UZF RECHARGE =           0.0000
               GW ET =    60244368.0000                 GW ET =           6.1489
     SURFACE LEAKAGE =           0.0000       SURFACE LEAKAGE =           0.0000

           TOTAL OUT =   484133056.0000             TOTAL OUT =          40.3893

            IN - OUT =      -12608.0000              IN - OUT =      -1.2665E-03

 PERCENT DISCREPANCY =          -0.00     PERCENT DISCREPANCY =          -0.00






         TIME SUMMARY AT END OF TIME STEP   10 IN STRESS PERIOD    5
                    SECONDS     MINUTES      HOURS       DAYS        YEARS
                    -----------------------------------------------------------
   TIME STEP LENGTH 1.95033E+05  3250.6      54.176      2.2573     6.18023E-03
 STRESS PERIOD TIME 1.31823E+06  21971.      366.18      15.257     4.17723E-02
         TOTAL TIME 1.18302E+07 1.97171E+05  3286.2      136.92     0.37488    
1
 
 SOLVING FOR HEAD 
                                                   Max.-Head-Change                         Max.-Flux-Residual
  Residual-Control   Outer-Iter.   Inner-Iter.     Column Row Layer    Maximum-Head-Change  Column Row Layer    Maximum-Flux-Residual          L2-NORM 
          0                 1           2             3    8     1      -0.4452908816E-01       6    8    1        -0.8736772575E+00      0.3394941797E+01
          0                 2           2             3    8     1       0.4412367700E-02       6    8    1         0.8736517093E-01      0.3375767983E+00
          0                 3           2             3    8     1      -0.3935069356E-03       6    8    1        -0.7862891445E-02      0.3020963068E-01
          0                 4           1             3    8     1       0.3123389221E-04       6    8    1         0.6298175697E-03      0.2405974453E-02

    ------------------------------------------------
       NWT REQUIRED            4 OUTER ITERATIONS 
       AND A TOTAL OF          7 INNER ITERATIONS.
    ------------------------------------------------

 NO OUTPUT CONTROL FOR STRESS PERIOD    5   TIME STEP   11
 
 SOLVING FOR HEAD 
                                                   Max.-Head-Change                         Max.-Flux-Residual
  Residual-Control   Outer-Iter.   Inner-Iter.     Column Row Layer    Maximum-Head-Change  Column Row Layer    Maximum-Flux-Residual          L2-NORM 
          0                 1           2             3    8     1      -0.4842123802E-01       6    8    1        -0.8494455764E+00      0.3325359285E+01
          0                 2           2             3    8     1       0.4798027871E-02       6    8    1         0.8494181244E-01      0.3309751059E+00
          0                 3           2             3    8     1      -0.4279012685E-03       6    8    1        -0.7644791022E-02      0.2964916783E-01
          0                 4           1             3    8     1       0.3396387833E-04       6    8    1         0.6123476969E-03      0.2364143152E-02

    ------------------------------------------------
       NWT REQUIRED            4 OUTER ITERATIONS 
       AND A TOTAL OF          7 INNER ITERATIONS.
    ------------------------------------------------

 NO OUTPUT CONTROL FOR STRESS PERIOD    5   TIME STEP   12
 
 SOLVING FOR HEAD 
                                                   Max.-Head-Change                         Max.-Flux-Residual
  Residual-Control   Outer-Iter.   Inner-Iter.     Column Row Layer    Maximum-Head-Change  Column Row Layer    Maximum-Flux-Residual          L2-NORM 
          0                 1           2             3    8     1      -0.5259372990E-01       6    8    1        -0.8252093306E+00      0.3267031633E+01
          0                 2           2             3    8     1       0.5211463047E-02       6    8    1         0.8251800279E-01      0.3254564993E+00
          0                 3           2             3    8     1      -0.4647726915E-03       6    8    1        -0.7426649939E-02      0.2918153039E-01
          0                 4           1             3    8     1       0.3689047933E-04       6    8    1         0.5948745863E-03      0.2328665297E-02

    ------------------------------------------------
       NWT REQUIRED            4 OUTER ITERATIONS 
       AND A TOTAL OF          7 INNER ITERATIONS.
    ------------------------------------------------

 NO OUTPUT CONTROL FOR STRESS PERIOD    5   TIME STEP   13
 
 SOLVING FOR HEAD 
                                                   Max.-Head-Change                         Max.-Flux-Residual
  Residual-Control   Outer-Iter.   Inner-Iter.     Column Row Layer    Maximum-Head-Change  Column Row Layer    Maximum-Flux-Residual          L2-NORM 
          0                 1           2             3    8     1      -0.5705627527E-01       6    8    1        -0.8011245615E+00      0.3217948972E+01
          0                 2           2             3    8     1       0.5653634537E-02       6    8    1         0.8010934931E-01      0.3208168483E+00
          0                 3           2             3    8     1      -0.5042069458E-03       6    8    1        -0.7209872836E-02      0.2878884532E-01
          0                 4           1             3    8     1       0.4002049923E-04       6    8    1         0.5775107093E-03      0.2299570606E-02

    ------------------------------------------------
       NWT REQUIRED            4 OUTER ITERATIONS 
       AND A TOTAL OF          7 INNER ITERATIONS.
    ------------------------------------------------

 NO OUTPUT CONTROL FOR STRESS PERIOD    5   TIME STEP   14
 
 SOLVING FOR HEAD 
                                                   Max.-Head-Change                         Max.-Flux-Residual
  Residual-Control   Outer-Iter.   Inner-Iter.     Column Row Layer    Maximum-Head-Change  Column Row Layer    Maximum-Flux-Residual          L2-NORM 
          0                 1           2             3    8     1      -0.6181768667E-01       6    8    1        -0.7773431320E+00      0.3176422155E+01
          0                 2           2             3    8     1       0.6125414401E-02       6    8    1         0.7773104142E-01      0.3168867276E+00
          0                 3           2             3    8     1      -0.5462818165E-03       6    8    1        -0.6995826720E-02      0.2845561871E-01
          0                 4           1             3    8     1       0.4336011253E-04       6    8    1         0.5603656057E-03      0.2274634206E-02

    ------------------------------------------------
       NWT REQUIRED            4 OUTER ITERATIONS 
       AND A TOTAL OF          7 INNER ITERATIONS.
    ------------------------------------------------

 OUTPUT CONTROL FOR STRESS PERIOD    5   TIME STEP   15
    PRINT BUDGET
    SAVE BUDGET

            WELLS   PERIOD    5   STEP  15
 WELL      1   LAYER   1   ROW     6   COL     4   RATE    -3.00000    
 WELL      2   LAYER   1   ROW     6   COL     5   RATE    -3.00000    
 WELL      3   LAYER   1   ROW     7   COL     4   RATE    -3.00000    
 WELL      4   LAYER   1   ROW     7   COL     5   RATE    -3.00000    
 WELL      5   LAYER   1   ROW     8   COL     4   RATE    -3.00000    
 WELL      6   LAYER   1   ROW     8   COL     5   RATE    -3.00000    
 WELL      7   LAYER   1   ROW     9   COL     4   RATE    -3.00000    
 WELL      8   LAYER   1   ROW     9   COL     5   RATE    -3.00000    
 WELL      9   LAYER   1   ROW    10   COL     4   RATE    -3.00000    
 WELL     10   LAYER   1   ROW    10   COL     5   RATE    -3.00000    

  HEAD DEP BOUNDS   PERIOD    5   STEP    15
 BOUNDARY      1   LAYER   1   ROW    13   COL     1   RATE   -0.282645    
 BOUNDARY      2   LAYER   1   ROW    14   COL     9   RATE    0.301189    



 STREAM LISTING     PERIOD      5   STEP       15

 LAYER ROW COL. STREAM  RCH.  FLOW INTO     FLOW TO   FLOW OUT OF   OVRLND.     DIRECT     STREAM       STREAM     STREAM     STREAM   STREAMBED  STREAMBED
                SEG.NO.  NO.  STRM. RCH.    AQUIFER    STRM. RCH.    RUNOFF     PRECIP       ET          HEAD       DEPTH      WIDTH   CONDCTNC.   GRADIENT

   1    1    1     1     1    2.5000E+01  2.4590E-01   2.5081E+01  3.270E-01  0.000E+00  0.000E+00  1.09423E+03  1.181E+00  1.307E+01  5.882E-02  1.394E+00
   1    2    2     1     2    2.5081E+01  3.8325E-01   2.5207E+01  5.087E-01  0.000E+00  0.000E+00  1.08924E+03  1.182E+00  1.309E+01  9.164E-02  1.394E+00
   1    3    3     1     3    2.5207E+01  3.2921E-01   2.5313E+01  4.360E-01  0.000E+00  0.000E+00  1.08360E+03  1.184E+00  1.311E+01  7.868E-02  1.395E+00
   1    3    4     1     4    2.5313E+01  3.0510E-01   2.5412E+01  4.033E-01  0.000E+00  0.000E+00  1.07859E+03  1.186E+00  1.313E+01  7.289E-02  1.395E+00
   1    4    5     2     1    1.5412E+01  0.0000E+00   1.5706E+01  2.943E-01  0.000E+00  0.000E+00  1.07284E+03  9.085E-01  1.200E+01  0.000E+00  1.303E+00
   1    5    6     2     2    1.5706E+01  0.0000E+00   1.5932E+01  2.264E-01  0.000E+00  0.000E+00  1.06743E+03  9.176E-01  1.200E+01  0.000E+00  1.306E+00
   1    6    6     2     3    1.5932E+01  0.0000E+00   1.6159E+01  2.264E-01  0.000E+00  0.000E+00  1.06272E+03  9.255E-01  1.200E+01  0.000E+00  1.308E+00
   1    7    6     2     4    1.6159E+01  0.0000E+00   1.6385E+01  2.264E-01  0.000E+00  0.000E+00  1.05801E+03  9.333E-01  1.200E+01  0.000E+00  1.311E+00
   1    8    6     2     5    1.6385E+01  0.0000E+00   1.6612E+01  2.264E-01  0.000E+00  0.000E+00  1.05330E+03  9.410E-01  1.200E+01  0.000E+00  1.314E+00
   1    3    5     3     1    1.0000E+01  2.8252E-01   1.0831E+01  1.114E+00  0.000E+00  0.000E+00  1.07555E+03  1.909E+00  9.636E+00  7.227E-02  1.955E+00
   1    3    6     3     2    1.0831E+01  2.4905E-01   1.1696E+01  1.114E+00  0.000E+00  0.000E+00  1.07264E+03  1.727E+00  8.909E+00  6.682E-02  1.864E+00
   1    3    7     3     3    1.1696E+01  1.9718E-01   1.2501E+01  1.002E+00  0.000E+00  0.000E+00  1.06987E+03  1.555E+00  8.218E+00  5.547E-02  1.777E+00
   1    4    8     3     4    1.2501E+01  2.2567E-01   1.3611E+01  1.336E+00  0.000E+00  0.000E+00  1.06682E+03  1.364E+00  7.455E+00  6.709E-02  1.682E+00
   1    5    8     3     5    1.3611E+01  1.5790E-01   1.4567E+01  1.114E+00  0.000E+00  0.000E+00  1.06362E+03  1.164E+00  6.655E+00  4.991E-02  1.582E+00
   1    6    8     3     6    1.4567E+01  5.5980E-02   1.4957E+01  4.455E-01  0.000E+00  0.000E+00  1.06158E+03  1.036E+00  6.145E+00  1.844E-02  1.518E+00
   1    5   10     4     1    1.0000E+01  0.0000E+00   1.0227E+01  2.273E-01  0.000E+00  0.000E+00  1.07837E+03  6.429E-01  1.000E+01  0.000E+00  1.214E+00
   1    5    9     4     2    1.0227E+01  0.0000E+00   1.0682E+01  4.545E-01  0.000E+00  0.000E+00  1.07156E+03  6.558E-01  1.000E+01  0.000E+00  1.219E+00
   1    6    8     4     3    1.0682E+01  0.0000E+00   1.1000E+01  3.182E-01  0.000E+00  0.000E+00  1.06385E+03  6.702E-01  1.000E+01  0.000E+00  1.223E+00
   1    6    8     5     1    2.5957E+01  4.2216E-01   2.5928E+01  3.933E-01  0.000E+00  0.000E+00  1.05894E+03  9.376E-01  2.680E+01  1.072E-01  1.313E+00
   1    7    7     5     2    2.5928E+01  5.2726E-01   2.5892E+01  4.917E-01  0.000E+00  0.000E+00  1.05444E+03  9.372E-01  2.678E+01  1.339E-01  1.312E+00
   1    8    7     5     3    2.5892E+01  3.6879E-01   2.5868E+01  3.442E-01  0.000E+00  0.000E+00  1.05019E+03  9.368E-01  2.676E+01  9.368E-02  1.312E+00
   1    8    6     5     4    2.5868E+01  2.6327E-01   2.5850E+01  2.458E-01  0.000E+00  0.000E+00  1.04719E+03  9.366E-01  2.675E+01  6.688E-02  1.312E+00
   1    9    6     6     1    4.2462E+01  0.0000E+00   4.3246E+01  7.841E-01  0.000E+00  0.000E+00  1.04441E+03  1.687E+00  1.200E+01  0.000E+00  1.562E+00
   1   10    7     6     2    4.3246E+01  0.0000E+00   4.4030E+01  7.841E-01  0.000E+00  0.000E+00  1.03989E+03  1.706E+00  1.200E+01  0.000E+00  1.569E+00
   1   11    7     6     3    4.4030E+01  0.0000E+00   4.4814E+01  7.841E-01  0.000E+00  0.000E+00  1.03536E+03  1.724E+00  1.200E+01  0.000E+00  1.575E+00
   1   12    7     6     4    4.4814E+01  0.0000E+00   4.5598E+01  7.841E-01  0.000E+00  0.000E+00  1.03083E+03  1.742E+00  1.200E+01  0.000E+00  1.581E+00
   1   13    7     6     5    4.5598E+01  0.0000E+00   4.5912E+01  3.136E-01  0.000E+00  0.000E+00  1.02766E+03  1.755E+00  1.200E+01  0.000E+00  8.951E-01
   1   14    9     7     1    1.5000E+02  1.5639E+00   1.4917E+02  7.339E-01  0.000E+00  0.000E+00  1.03987E+03  2.289E+00  5.530E+01  5.594E-01  9.319E-01
   1   13    8     7     2    1.4917E+02  2.5351E+00   1.4744E+02  8.073E-01  0.000E+00  0.000E+00  1.03478E+03  2.282E+00  5.527E+01  6.149E-01  1.374E+00
   1   13    7     7     3    1.4744E+02  2.6327E+00   1.4554E+02  7.339E-01  0.000E+00  0.000E+00  1.02969E+03  2.273E+00  5.523E+01  5.586E-01  1.571E+00
   1   13    6     8     1    1.9146E+02  2.1738E+00   1.9326E+02  3.978E+00  0.000E+00  0.000E+00  1.02497E+03  3.092E+00  4.484E+01  4.569E-01  1.586E+00
   1   13    5     8     2    1.9326E+02  1.5595E+00   1.9568E+02  3.978E+00  0.000E+00  0.000E+00  1.01873E+03  3.105E+00  4.502E+01  4.588E-01  1.133E+00
   1   13    4     8     3    1.9568E+02  5.7664E-01   1.9908E+02  3.978E+00  0.000E+00  0.000E+00  1.01250E+03  3.122E+00  4.527E+01  4.613E-01  4.166E-01
   1   13    3     8     4    1.9908E+02 -6.7444E-01   2.0373E+02  3.978E+00  0.000E+00  0.000E+00  1.00627E+03  3.146E+00  4.562E+01  4.648E+00 -4.836E-02
   1   13    2     8     5    2.0373E+02 -1.1341E+00   2.0884E+02  3.978E+00  0.000E+00  0.000E+00  1.00005E+03  3.174E+00  4.603E+01  4.690E+00 -8.060E-02
   1   13    1     8     6    2.0884E+02 -1.0329E+00   2.1226E+02  2.387E+00  0.000E+00  0.000E+00  9.95074E+02  3.199E+00  4.638E+01  2.836E+00 -1.214E-01



 UBDSV3 SAVING "     NETRECHARGE" ON UNIT 100 AT TIME STEP    15, STRESS PERIOD   5
 UBDSV3 SAVING "    NETDISCHARGE" ON UNIT 101 AT TIME STEP    15, STRESS PERIOD   5
 UBDSV3 SAVING "           GW ET" ON UNIT  61 AT TIME STEP    15, STRESS PERIOD   5
 UBDSV3 SAVING "    UZF RECHARGE" ON UNIT  61 AT TIME STEP    15, STRESS PERIOD   5
 UBDSV3 SAVING " SURFACE LEAKAGE" ON UNIT  61 AT TIME STEP    15, STRESS PERIOD   5
 UBDSV3 SAVING "       HORT+DUNN" ON UNIT  61 AT TIME STEP    15, STRESS PERIOD   5
 UBDSV3 SAVING "  STORAGE CHANGE" ON UNIT  61 AT TIME STEP    15, STRESS PERIOD   5


UNSATURATED ZONE PACKAGE VOLUMETRIC BUDGET FOR  TIME STEP    15 STRESS PERIOD    5
  ------------------------------------------------------------------------------



     CUMULATIVE VOLUMES      L**3       RATES FOR THIS TIME STEP      L**3/T
     ------------------                 ------------------------

           IN:                                      IN:
           ---                                      ---
        INFILTRATION =    38105996.7148          INFILTRATION =           2.9000

          OUT:                                     OUT:
          ----                                     ----
              UZF ET =     7852951.1110                UZF ET =           1.1749
        UZF RECHARGE =     7880960.6654          UZF RECHARGE =       0.0000E+00

            IN - OUT =    22372084.9385              IN - OUT =           1.7251

          STORAGE:                                 STORAGE:
          --------                                 --------
      STORAGE CHANGE =    22372083.5360        STORAGE CHANGE =           1.7251

 PERCENT DISCREPANCY IS DIFFERENCE BETWEEN IN-OUT MINUS CHANGE IN STORAGE
 DIVIDED BY THE AVERAGE OF IN AND OUT TIMES 100

 PERCENT DISCREPANCY =           0.00     PERCENT DISCREPANCY =           0.00






1
  VOLUMETRIC BUDGET FOR ENTIRE MODEL AT END OF TIME STEP   15, STRESS PERIOD   5
  ------------------------------------------------------------------------------

     CUMULATIVE VOLUMES      L**3       RATES FOR THIS TIME STEP      L**3/T
     ------------------                 ------------------------

           IN:                                      IN:
           ---                                      ---
             STORAGE =   323796896.0000               STORAGE =          23.9139
       CONSTANT HEAD =           0.0000         CONSTANT HEAD =           0.0000
               WELLS =           0.0000                 WELLS =           0.0000
     HEAD DEP BOUNDS =     3948254.0000       HEAD DEP BOUNDS =           0.3012
      STREAM LEAKAGE =   200401728.0000        STREAM LEAKAGE =          15.0547
        UZF RECHARGE =     7880964.5000          UZF RECHARGE =           0.0000
               GW ET =           0.0000                 GW ET =           0.0000
     SURFACE LEAKAGE =           0.0000       SURFACE LEAKAGE =           0.0000

            TOTAL IN =   536027840.0000              TOTAL IN =          39.2698

          OUT:                                     OUT:
          ----                                     ----
             STORAGE =     5854886.5000               STORAGE =           0.0000
       CONSTANT HEAD =           0.0000         CONSTANT HEAD =           0.0000
               WELLS =   420480000.0000                 WELLS =          30.0000
     HEAD DEP BOUNDS =     3771074.0000       HEAD DEP BOUNDS =           0.2826
      STREAM LEAKAGE =    37639980.0000        STREAM LEAKAGE =           2.8414
        UZF RECHARGE =           0.0000          UZF RECHARGE =           0.0000
               GW ET =    68296136.0000                 GW ET =           6.1469
     SURFACE LEAKAGE =           0.0000       SURFACE LEAKAGE =           0.0000

           TOTAL OUT =   536042048.0000             TOTAL OUT =          39.2710

            IN - OUT =      -14208.0000              IN - OUT =      -1.2054E-03

 PERCENT DISCREPANCY =          -0.00     PERCENT DISCREPANCY =          -0.00






         TIME SUMMARY AT END OF TIME STEP   15 IN STRESS PERIOD    5
                    SECONDS     MINUTES      HOURS       DAYS        YEARS
                    -----------------------------------------------------------
   TIME STEP LENGTH 3.14103E+05  5235.0      87.251      3.6354     9.95332E-03
 STRESS PERIOD TIME 2.62800E+06  43800.      730.00      30.417     8.32763E-02
         TOTAL TIME 1.31400E+07 2.19000E+05  3650.0      152.08     0.41638    
1
1
                            STRESS PERIOD NO.    6, LENGTH =   2628000.    
                            -----------------------------------------------

                              NUMBER OF TIME STEPS =    15

                               MULTIPLIER FOR DELT =     1.100

                            INITIAL TIME STEP SIZE =   82713.07    

      0 WELLS

 REUSING NON-PARAMETER GHB CELLS FROM LAST STRESS PERIOD

      2 GHB CELLS

 REUSING STREAM SEGMENT DATA FROM LAST STRESS PERIOD



            AREAL INFILTRATION RATE
 READING ON UNIT   19 WITH FORMAT: (10F4.0)            

            1           2           3           4           5           6           7           8           9          10
 ........................................................................................................................
   1   1.0000E-08  2.0000E-08   0.000       0.000       0.000       0.000       0.000       0.000       0.000       0.000    
   2   2.0000E-08  1.0000E-08  2.0000E-08   0.000       0.000      8.0000E-08  8.0000E-08  5.0000E-08   0.000       0.000    
   3    0.000      5.0000E-08  1.0000E-08  1.0000E-08  8.0000E-08  8.0000E-08  5.0000E-08  5.0000E-08   0.000       0.000    
   4   8.0000E-08  5.0000E-08  1.0000E-08  1.0000E-08  1.0000E-08  1.0000E-08  1.0000E-08  1.0000E-08  2.0000E-08   0.000    
   5   8.0000E-08  5.0000E-08  1.0000E-08  1.0000E-08  1.0000E-08  1.0000E-08  1.0000E-08  1.0000E-08  1.0000E-08  1.0000E-08
   6   8.0000E-08  5.0000E-08  5.0000E-08  2.0000E-08  2.0000E-08  1.0000E-08  1.0000E-08  1.0000E-08  1.0000E-08  5.0000E-08
   7   8.0000E-08  5.0000E-08  5.0000E-08  2.0000E-08  2.0000E-08  1.0000E-08  1.0000E-08  2.0000E-08  2.0000E-08   0.000    
   8    0.000      5.0000E-08  5.0000E-08  2.0000E-08  2.0000E-08  1.0000E-08  1.0000E-08  2.0000E-08  5.0000E-08   0.000    
   9    0.000      5.0000E-08  5.0000E-08  2.0000E-08  2.0000E-08  1.0000E-08  1.0000E-08  2.0000E-08  5.0000E-08   0.000    
  10    0.000      5.0000E-08  5.0000E-08  2.0000E-08  2.0000E-08  1.0000E-08  1.0000E-08  2.0000E-08  5.0000E-08  8.0000E-08
  11    0.000      1.0000E-08  1.0000E-08  1.0000E-08  1.0000E-08  1.0000E-08  1.0000E-08  2.0000E-08  5.0000E-08   0.000    
  12   1.0000E-08  1.0000E-08  1.0000E-08  1.0000E-08  1.0000E-08  1.0000E-08  1.0000E-08  1.0000E-08  2.0000E-08   0.000    
  13   1.0000E-08  1.0000E-08  2.0000E-08  2.0000E-08  2.0000E-08  2.0000E-08  2.0000E-08  1.0000E-08  1.0000E-08   0.000    
  14    0.000      2.0000E-08  5.0000E-08  5.0000E-08  5.0000E-08  5.0000E-08  5.0000E-08  2.0000E-08  1.0000E-08   0.000    
  15    0.000       0.000      8.0000E-08  8.0000E-08  8.0000E-08  8.0000E-08   0.000       0.000       0.000       0.000    

USING ET RATE FROM PREVIOUS STRESS PERIOD. CURRENT PERIOD IS:       6

 USING ET EXTINCTION DEPTH FROM PREVIOUS STRESS PERIOD. CURRENT PERIOD IS:       6

 USING EXTINCTION WATER CONTENT FROM PREVIOUS STRESS PERIOD. CURRENT PERIOD IS:       6
 
 SOLVING FOR HEAD 
                                                   Max.-Head-Change                         Max.-Flux-Residual
  Residual-Control   Outer-Iter.   Inner-Iter.     Column Row Layer    Maximum-Head-Change  Column Row Layer    Maximum-Flux-Residual          L2-NORM 
          0                 1           2             5    6     1       0.4523812612E-01       5    6    1         0.2573270418E+01      0.8235548064E+01
          0                 2           2             5    6     1      -0.4482673192E-02       5    6    1        -0.2573260366E+00      0.8234710557E+00
          0                 3           2             5    6     1       0.3997765015E-03       5    6    1         0.2315935604E-01      0.7410464297E-01
          0                 4           1             5    6     1      -0.3173153122E-04       5    6    1        -0.1855064816E-02      0.5935190240E-02

    ------------------------------------------------
       NWT REQUIRED            4 OUTER ITERATIONS 
       AND A TOTAL OF          7 INNER ITERATIONS.
    ------------------------------------------------

 NO OUTPUT CONTROL FOR STRESS PERIOD    6   TIME STEP    1
 
 SOLVING FOR HEAD 
                                                   Max.-Head-Change                         Max.-Flux-Residual
  Residual-Control   Outer-Iter.   Inner-Iter.     Column Row Layer    Maximum-Head-Change  Column Row Layer    Maximum-Flux-Residual          L2-NORM 
          0                 1           2             4   10     1       0.4867443604E-01       5    6    1         0.2491783069E+01      0.8071479266E+01
          0                 2           2             4   10     1      -0.4823184984E-02       5    6    1        -0.2491771196E+00      0.8070684314E+00
          0                 3           2             4   10     1       0.4301441750E-03       5    6    1         0.2242595519E-01      0.7262884711E-01
          0                 4           1             4   10     1      -0.3414191016E-04       5    6    1        -0.1796319387E-02      0.5816923410E-02

    ------------------------------------------------
       NWT REQUIRED            4 OUTER ITERATIONS 
       AND A TOTAL OF          7 INNER ITERATIONS.
    ------------------------------------------------

 NO OUTPUT CONTROL FOR STRESS PERIOD    6   TIME STEP    2
 
 SOLVING FOR HEAD 
                                                   Max.-Head-Change                         Max.-Flux-Residual
  Residual-Control   Outer-Iter.   Inner-Iter.     Column Row Layer    Maximum-Head-Change  Column Row Layer    Maximum-Flux-Residual          L2-NORM 
          0                 1           2             4   10     1       0.5228291916E-01       4   10    1         0.2436338603E+01      0.7900097483E+01
          0                 2           2             4   10     1      -0.5180750916E-02       4   10    1        -0.2436332062E+00      0.7899353570E+00
          0                 3           2             4   10     1       0.4620328473E-03       4   10    1         0.2192699771E-01      0.7108743212E-01
          0                 4           1             4   10     1      -0.3667301599E-04       4   10    1        -0.1756352921E-02      0.5693546765E-02

    ------------------------------------------------
       NWT REQUIRED            4 OUTER ITERATIONS 
       AND A TOTAL OF          7 INNER ITERATIONS.
    ------------------------------------------------

 NO OUTPUT CONTROL FOR STRESS PERIOD    6   TIME STEP    3
 
 SOLVING FOR HEAD 
                                                   Max.-Head-Change                         Max.-Flux-Residual
  Residual-Control   Outer-Iter.   Inner-Iter.     Column Row Layer    Maximum-Head-Change  Column Row Layer    Maximum-Flux-Residual          L2-NORM 
          0                 1           2             4    9     1       0.5684724571E-01       4   10    1         0.2379048539E+01      0.7721689099E+01
          0                 2           2             4    9     1      -0.5633052333E-02       4   10    1        -0.2379041428E+00      0.7721003162E+00
          0                 3           2             4    9     1       0.5023700739E-03       4   10    1         0.2141138249E-01      0.6948279581E-01
          0                 4           1             4    9     1      -0.3987471098E-04       4   10    1        -0.1715052115E-02      0.5565071020E-02

    ------------------------------------------------
       NWT REQUIRED            4 OUTER ITERATIONS 
       AND A TOTAL OF          7 INNER ITERATIONS.
    ------------------------------------------------

 NO OUTPUT CONTROL FOR STRESS PERIOD    6   TIME STEP    4
 
 SOLVING FOR HEAD 
                                                   Max.-Head-Change                         Max.-Flux-Residual
  Residual-Control   Outer-Iter.   Inner-Iter.     Column Row Layer    Maximum-Head-Change  Column Row Layer    Maximum-Flux-Residual          L2-NORM 
          0                 1           2             4    9     1       0.6199187759E-01       4    9    1         0.2351335904E+01      0.7536617672E+01
          0                 2           2             4    9     1      -0.6142844697E-02       4    9    1        -0.2351342646E+00      0.7567216013E+00
          0                 3           2             4    9     1       0.5478346123E-03       4    9    1         0.2116207982E-01      0.6807482314E-01
          0                 4           1             4    9     1      -0.4348337691E-04       4    9    1        -0.1695083085E-02      0.5450359028E-02

    ------------------------------------------------
       NWT REQUIRED            4 OUTER ITERATIONS 
       AND A TOTAL OF          7 INNER ITERATIONS.
    ------------------------------------------------

 OUTPUT CONTROL FOR STRESS PERIOD    6   TIME STEP    5
    PRINT BUDGET
    SAVE BUDGET

  HEAD DEP BOUNDS   PERIOD    6   STEP     5
 BOUNDARY      1   LAYER   1   ROW    13   COL     1   RATE   -0.283415    
 BOUNDARY      2   LAYER   1   ROW    14   COL     9   RATE    0.301235    



 STREAM LISTING     PERIOD      6   STEP        5

 LAYER ROW COL. STREAM  RCH.  FLOW INTO     FLOW TO   FLOW OUT OF   OVRLND.     DIRECT     STREAM       STREAM     STREAM     STREAM   STREAMBED  STREAMBED
                SEG.NO.  NO.  STRM. RCH.    AQUIFER    STRM. RCH.    RUNOFF     PRECIP       ET          HEAD       DEPTH      WIDTH   CONDCTNC.   GRADIENT

   1    1    1     1     1    2.5000E+01  2.4674E-01   2.5446E+01  6.931E-01  0.000E+00  0.000E+00  1.09423E+03  1.183E+00  1.311E+01  5.898E-02  1.394E+00
   1    2    2     1     2    2.5446E+01  3.8786E-01   2.6137E+01  1.078E+00  0.000E+00  0.000E+00  1.08925E+03  1.192E+00  1.322E+01  9.253E-02  1.397E+00
   1    3    3     1     3    2.6137E+01  3.3630E-01   2.6724E+01  9.241E-01  0.000E+00  0.000E+00  1.08362E+03  1.201E+00  1.334E+01  8.005E-02  1.400E+00
   1    3    4     1     4    2.6724E+01  3.1418E-01   2.7265E+01  8.548E-01  0.000E+00  0.000E+00  1.07862E+03  1.209E+00  1.345E+01  7.464E-02  1.403E+00
   1    4    5     2     1    1.7265E+01  0.0000E+00   1.7927E+01  6.623E-01  0.000E+00  0.000E+00  1.07291E+03  9.781E-01  1.200E+01  0.000E+00  1.326E+00
   1    5    6     2     2    1.7927E+01  0.0000E+00   1.8437E+01  5.094E-01  0.000E+00  0.000E+00  1.06751E+03  9.975E-01  1.200E+01  0.000E+00  1.333E+00
   1    6    6     2     3    1.8437E+01  0.0000E+00   1.8946E+01  5.094E-01  0.000E+00  0.000E+00  1.06281E+03  1.014E+00  1.200E+01  0.000E+00  1.338E+00
   1    7    6     2     4    1.8946E+01  0.0000E+00   1.9455E+01  5.094E-01  0.000E+00  0.000E+00  1.05811E+03  1.031E+00  1.200E+01  0.000E+00  1.344E+00
   1    8    6     2     5    1.9455E+01  0.0000E+00   1.9965E+01  5.094E-01  0.000E+00  0.000E+00  1.05341E+03  1.047E+00  1.200E+01  0.000E+00  1.349E+00
   1    3    5     3     1    1.0000E+01  2.8252E-01   1.1990E+01  2.273E+00  0.000E+00  0.000E+00  1.07555E+03  1.909E+00  9.636E+00  7.227E-02  1.955E+00
   1    3    6     3     2    1.1990E+01  2.4905E-01   1.4014E+01  2.273E+00  0.000E+00  0.000E+00  1.07264E+03  1.727E+00  8.909E+00  6.682E-02  1.864E+00
   1    3    7     3     3    1.4014E+01  1.9718E-01   1.5862E+01  2.045E+00  0.000E+00  0.000E+00  1.06987E+03  1.555E+00  8.218E+00  5.547E-02  1.777E+00
   1    4    8     3     4    1.5862E+01  2.2567E-01   1.8364E+01  2.727E+00  0.000E+00  0.000E+00  1.06682E+03  1.364E+00  7.455E+00  6.709E-02  1.682E+00
   1    5    8     3     5    1.8364E+01  1.5790E-01   2.0479E+01  2.273E+00  0.000E+00  0.000E+00  1.06362E+03  1.164E+00  6.655E+00  4.991E-02  1.582E+00
   1    6    8     3     6    2.0479E+01  5.5980E-02   2.1332E+01  9.091E-01  0.000E+00  0.000E+00  1.06158E+03  1.036E+00  6.145E+00  1.844E-02  1.518E+00
   1    5   10     4     1    1.0000E+01  0.0000E+00   1.0483E+01  4.830E-01  0.000E+00  0.000E+00  1.07838E+03  6.477E-01  1.000E+01  0.000E+00  1.216E+00
   1    5    9     4     2    1.0483E+01  0.0000E+00   1.1449E+01  9.659E-01  0.000E+00  0.000E+00  1.07158E+03  6.748E-01  1.000E+01  0.000E+00  1.225E+00
   1    6    8     4     3    1.1449E+01  0.0000E+00   1.2125E+01  6.761E-01  0.000E+00  0.000E+00  1.06389E+03  7.047E-01  1.000E+01  0.000E+00  1.235E+00
   1    6    8     5     1    3.3457E+01  5.0435E-01   3.3779E+01  8.267E-01  0.000E+00  0.000E+00  1.05903E+03  1.027E+00  3.131E+01  1.253E-01  1.342E+00
   1    7    7     5     2    3.3779E+01  6.3508E-01   3.4177E+01  1.033E+00  0.000E+00  0.000E+00  1.05453E+03  1.030E+00  3.151E+01  1.576E-01  1.343E+00
   1    8    7     5     3    3.4177E+01  4.4759E-01   3.4453E+01  7.233E-01  0.000E+00  0.000E+00  1.05028E+03  1.034E+00  3.170E+01  1.110E-01  1.345E+00
   1    8    6     5     4    3.4453E+01  3.2122E-01   3.4648E+01  5.167E-01  0.000E+00  0.000E+00  1.04729E+03  1.037E+00  3.183E+01  7.958E-02  1.346E+00
   1    9    6     6     1    5.4613E+01  0.0000E+00   5.6250E+01  1.636E+00  0.000E+00  0.000E+00  1.04470E+03  1.969E+00  1.200E+01  0.000E+00  1.656E+00
   1   10    7     6     2    5.6250E+01  0.0000E+00   5.7886E+01  1.636E+00  0.000E+00  0.000E+00  1.04019E+03  2.004E+00  1.200E+01  0.000E+00  1.668E+00
   1   11    7     6     3    5.7886E+01  0.0000E+00   5.9522E+01  1.636E+00  0.000E+00  0.000E+00  1.03567E+03  2.038E+00  1.200E+01  0.000E+00  1.679E+00
   1   12    7     6     4    5.9522E+01  0.0000E+00   6.1159E+01  1.636E+00  0.000E+00  0.000E+00  1.03116E+03  2.072E+00  1.200E+01  0.000E+00  1.691E+00
   1   13    7     6     5    6.1159E+01  0.0000E+00   6.1813E+01  6.545E-01  0.000E+00  0.000E+00  1.02800E+03  2.095E+00  1.200E+01  0.000E+00  1.011E+00
   1   14    9     7     1    1.5000E+02  1.5660E+00   1.4997E+02  1.540E+00  0.000E+00  0.000E+00  1.03987E+03  2.291E+00  5.531E+01  5.595E-01  9.330E-01
   1   13    8     7     2    1.4997E+02  2.5420E+00   1.4913E+02  1.694E+00  0.000E+00  0.000E+00  1.03479E+03  2.289E+00  5.530E+01  6.153E-01  1.377E+00
   1   13    7     7     3    1.4913E+02  2.6456E+00   1.4802E+02  1.540E+00  0.000E+00  0.000E+00  1.02970E+03  2.284E+00  5.528E+01  5.591E-01  1.577E+00
   1   13    6     8     1    2.0983E+02  2.3190E+00   2.1571E+02  8.196E+00  0.000E+00  0.000E+00  1.02509E+03  3.211E+00  4.657E+01  4.745E-01  1.629E+00
   1   13    5     8     2    2.1571E+02  1.7060E+00   2.2220E+02  8.196E+00  0.000E+00  0.000E+00  1.01887E+03  3.246E+00  4.707E+01  4.796E-01  1.186E+00
   1   13    4     8     3    2.2220E+02  6.9417E-01   2.2970E+02  8.196E+00  0.000E+00  0.000E+00  1.01266E+03  3.285E+00  4.763E+01  4.853E-01  4.768E-01
   1   13    3     8     4    2.2970E+02 -3.5417E-02   2.3794E+02  8.196E+00  0.000E+00  0.000E+00  1.00645E+03  3.327E+00  4.824E+01  4.916E+00 -2.401E-03
   1   13    2     8     5    2.3794E+02 -4.7330E-01   2.4661E+02  8.196E+00  0.000E+00  0.000E+00  1.00025E+03  3.372E+00  4.889E+01  4.982E+00 -3.167E-02
   1   13    1     8     6    2.4661E+02 -5.2916E-01   2.5205E+02  4.918E+00  0.000E+00  0.000E+00  9.95283E+02  3.408E+00  4.942E+01  3.022E+00 -5.838E-02



 UBDSV3 SAVING "     NETRECHARGE" ON UNIT 100 AT TIME STEP     5, STRESS PERIOD   6
 UBDSV3 SAVING "    NETDISCHARGE" ON UNIT 101 AT TIME STEP     5, STRESS PERIOD   6
 UBDSV3 SAVING "           GW ET" ON UNIT  61 AT TIME STEP     5, STRESS PERIOD   6
 UBDSV3 SAVING "    UZF RECHARGE" ON UNIT  61 AT TIME STEP     5, STRESS PERIOD   6
 UBDSV3 SAVING " SURFACE LEAKAGE" ON UNIT  61 AT TIME STEP     5, STRESS PERIOD   6
 UBDSV3 SAVING "       HORT+DUNN" ON UNIT  61 AT TIME STEP     5, STRESS PERIOD   6
 UBDSV3 SAVING "  STORAGE CHANGE" ON UNIT  61 AT TIME STEP     5, STRESS PERIOD   6


UNSATURATED ZONE PACKAGE VOLUMETRIC BUDGET FOR  TIME STEP     5 STRESS PERIOD    6
  ------------------------------------------------------------------------------



     CUMULATIVE VOLUMES      L**3       RATES FOR THIS TIME STEP      L**3/T
     ------------------                 ------------------------

           IN:                                      IN:
           ---                                      ---
        INFILTRATION =    39570414.2744          INFILTRATION =           2.9000

          OUT:                                     OUT:
          ----                                     ----
              UZF ET =     8444682.5419                UZF ET =           1.1723
        UZF RECHARGE =     7880960.6654          UZF RECHARGE =       0.0000E+00

            IN - OUT =    23244771.0671              IN - OUT =           1.7277

          STORAGE:                                 STORAGE:
          --------                                 --------
      STORAGE CHANGE =    23244769.6466        STORAGE CHANGE =           1.7277

 PERCENT DISCREPANCY IS DIFFERENCE BETWEEN IN-OUT MINUS CHANGE IN STORAGE
 DIVIDED BY THE AVERAGE OF IN AND OUT TIMES 100

 PERCENT DISCREPANCY =           0.00     PERCENT DISCREPANCY =           0.00






1
  VOLUMETRIC BUDGET FOR ENTIRE MODEL AT END OF TIME STEP    5, STRESS PERIOD   6
  ------------------------------------------------------------------------------

     CUMULATIVE VOLUMES      L**3       RATES FOR THIS TIME STEP      L**3/T
     ------------------                 ------------------------

           IN:                                      IN:
           ---                                      ---
             STORAGE =   331622816.0000               STORAGE =          14.5343
       CONSTANT HEAD =           0.0000         CONSTANT HEAD =           0.0000
               WELLS =           0.0000                 WELLS =           0.0000
     HEAD DEP BOUNDS =     4100360.0000       HEAD DEP BOUNDS =           0.3012
      STREAM LEAKAGE =   208394816.0000        STREAM LEAKAGE =          15.8344
        UZF RECHARGE =     7880964.5000          UZF RECHARGE =           0.0000
               GW ET =           0.0000                 GW ET =           0.0000
     SURFACE LEAKAGE =           0.0000       SURFACE LEAKAGE =           0.0000

            TOTAL IN =   551998976.0000              TOTAL IN =          30.6699

          OUT:                                     OUT:
          ----                                     ----
             STORAGE =    18123548.0000               STORAGE =          23.2010
       CONSTANT HEAD =           0.0000         CONSTANT HEAD =           0.0000
               WELLS =   420480000.0000                 WELLS =           0.0000
     HEAD DEP BOUNDS =     3914042.7500       HEAD DEP BOUNDS =           0.2834
      STREAM LEAKAGE =    38095068.0000        STREAM LEAKAGE =           1.0379
        UZF RECHARGE =           0.0000          UZF RECHARGE =           0.0000
               GW ET =    71400304.0000                 GW ET =           6.1472
     SURFACE LEAKAGE =           0.0000       SURFACE LEAKAGE =           0.0000

           TOTAL OUT =   552012992.0000             TOTAL OUT =          30.6695

            IN - OUT =      -14016.0000              IN - OUT =       4.6158E-04

 PERCENT DISCREPANCY =          -0.00     PERCENT DISCREPANCY =           0.00






         TIME SUMMARY AT END OF TIME STEP    5 IN STRESS PERIOD    6
                    SECONDS     MINUTES      HOURS       DAYS        YEARS
                    -----------------------------------------------------------
   TIME STEP LENGTH 1.21100E+05  2018.3      33.639      1.4016     3.83743E-03
 STRESS PERIOD TIME 5.04972E+05  8416.2      140.27      5.8446     1.60016E-02
         TOTAL TIME 1.36450E+07 2.27416E+05  3790.3      157.93     0.43238    
1
 
 SOLVING FOR HEAD 
                                                   Max.-Head-Change                         Max.-Flux-Residual
  Residual-Control   Outer-Iter.   Inner-Iter.     Column Row Layer    Maximum-Head-Change  Column Row Layer    Maximum-Flux-Residual          L2-NORM 
          0                 1           2             4    9     1       0.6749957409E-01       4    9    1         0.2331025070E+01      0.7343799190E+01
          0                 2           2             4    9     1      -0.6688616479E-02       4    9    1        -0.2331035380E+00      0.7342411965E+00
          0                 3           2             4    9     1       0.5965078575E-03       4    9    1         0.2097931090E-01      0.6606927721E-01
          0                 4           1             4    9     1      -0.4734672752E-04       4    9    1        -0.1680443304E-02      0.5291143941E-02

    ------------------------------------------------
       NWT REQUIRED            4 OUTER ITERATIONS 
       AND A TOTAL OF          7 INNER ITERATIONS.
    ------------------------------------------------

 NO OUTPUT CONTROL FOR STRESS PERIOD    6   TIME STEP    6
 
 SOLVING FOR HEAD 
                                                   Max.-Head-Change                         Max.-Flux-Residual
  Residual-Control   Outer-Iter.   Inner-Iter.     Column Row Layer    Maximum-Head-Change  Column Row Layer    Maximum-Flux-Residual          L2-NORM 
          0                 1           2             4    9     1       0.7337020668E-01       4    9    1         0.2307387988E+01      0.7145363675E+01
          0                 2           2             4    9     1      -0.7270356022E-02       4    9    1        -0.2307402878E+00      0.7144218574E+00
          0                 3           2             4    9     1       0.6483887597E-03       4    9    1         0.2076661385E-01      0.6428770480E-01
          0                 4           1             4    9     1      -0.5146468090E-04       4    9    1        -0.1663406301E-02      0.5148656022E-02

    ------------------------------------------------
       NWT REQUIRED            4 OUTER ITERATIONS 
       AND A TOTAL OF          7 INNER ITERATIONS.
    ------------------------------------------------

 NO OUTPUT CONTROL FOR STRESS PERIOD    6   TIME STEP    7
 
 SOLVING FOR HEAD 
                                                   Max.-Head-Change                         Max.-Flux-Residual
  Residual-Control   Outer-Iter.   Inner-Iter.     Column Row Layer    Maximum-Head-Change  Column Row Layer    Maximum-Flux-Residual          L2-NORM 
          0                 1           2             4    9     1       0.7959683304E-01       4    9    1         0.2280064571E+01      0.6942200361E+01
          0                 2           2             4    9     1      -0.7887376732E-02       4    9    1        -0.2280085206E+00      0.6941287658E+00
          0                 3           2             4    9     1       0.7034160746E-03       4    9    1         0.2052074914E-01      0.6246344348E-01
          0                 4           1             4    9     1      -0.5583237562E-04       4    9    1        -0.1643712596E-02      0.5002645156E-02

    ------------------------------------------------
       NWT REQUIRED            4 OUTER ITERATIONS 
       AND A TOTAL OF          7 INNER ITERATIONS.
    ------------------------------------------------

 NO OUTPUT CONTROL FOR STRESS PERIOD    6   TIME STEP    8
 
 SOLVING FOR HEAD 
                                                   Max.-Head-Change                         Max.-Flux-Residual
  Residual-Control   Outer-Iter.   Inner-Iter.     Column Row Layer    Maximum-Head-Change  Column Row Layer    Maximum-Flux-Residual          L2-NORM 
          0                 1           2             4    9     1       0.8616435788E-01       4    9    1         0.2248696026E+01      0.6734807509E+01
          0                 2           2             4    9     1      -0.8538184401E-02       4    9    1        -0.2248723711E+00      0.6734110106E+00
          0                 3           2             4    9     1       0.7614565267E-03       4    9    1         0.2023848872E-01      0.6060077518E-01
          0                 4           1             4    9     1      -0.6043923281E-04       4    9    1        -0.1621103571E-02      0.4853590922E-02

    ------------------------------------------------
       NWT REQUIRED            4 OUTER ITERATIONS 
       AND A TOTAL OF          7 INNER ITERATIONS.
    ------------------------------------------------

 NO OUTPUT CONTROL FOR STRESS PERIOD    6   TIME STEP    9
 
 SOLVING FOR HEAD 
                                                   Max.-Head-Change                         Max.-Flux-Residual
  Residual-Control   Outer-Iter.   Inner-Iter.     Column Row Layer    Maximum-Head-Change  Column Row Layer    Maximum-Flux-Residual          L2-NORM 
          0                 1           2             4    9     1       0.9304840439E-01       4    9    1         0.2212939542E+01      0.6523733785E+01
          0                 2           2             4    9     1      -0.9220365384E-02       4    9    1        -0.2212975699E+00      0.6523226320E+00
          0                 3           2             4    9     1       0.8222948446E-03       4    9    1         0.1991674826E-01      0.5870447120E-01
          0                 4           1             4    9     1      -0.6526816629E-04       4    9    1        -0.1595332228E-02      0.4701849898E-02

    ------------------------------------------------
       NWT REQUIRED            4 OUTER ITERATIONS 
       AND A TOTAL OF          7 INNER ITERATIONS.
    ------------------------------------------------

 OUTPUT CONTROL FOR STRESS PERIOD    6   TIME STEP   10
    PRINT BUDGET
    SAVE BUDGET

  HEAD DEP BOUNDS   PERIOD    6   STEP    10
 BOUNDARY      1   LAYER   1   ROW    13   COL     1   RATE   -0.284305    
 BOUNDARY      2   LAYER   1   ROW    14   COL     9   RATE    0.301308    



 STREAM LISTING     PERIOD      6   STEP       10

 LAYER ROW COL. STREAM  RCH.  FLOW INTO     FLOW TO   FLOW OUT OF   OVRLND.     DIRECT     STREAM       STREAM     STREAM     STREAM   STREAMBED  STREAMBED
                SEG.NO.  NO.  STRM. RCH.    AQUIFER    STRM. RCH.    RUNOFF     PRECIP       ET          HEAD       DEPTH      WIDTH   CONDCTNC.   GRADIENT

   1    1    1     1     1    2.5000E+01  2.4674E-01   2.5446E+01  6.931E-01  0.000E+00  0.000E+00  1.09423E+03  1.183E+00  1.311E+01  5.898E-02  1.394E+00
   1    2    2     1     2    2.5446E+01  3.8786E-01   2.6137E+01  1.078E+00  0.000E+00  0.000E+00  1.08925E+03  1.192E+00  1.322E+01  9.253E-02  1.397E+00
   1    3    3     1     3    2.6137E+01  3.3630E-01   2.6724E+01  9.241E-01  0.000E+00  0.000E+00  1.08362E+03  1.201E+00  1.334E+01  8.005E-02  1.400E+00
   1    3    4     1     4    2.6724E+01  3.1418E-01   2.7265E+01  8.548E-01  0.000E+00  0.000E+00  1.07862E+03  1.209E+00  1.345E+01  7.464E-02  1.403E+00
   1    4    5     2     1    1.7265E+01  0.0000E+00   1.7927E+01  6.623E-01  0.000E+00  0.000E+00  1.07291E+03  9.781E-01  1.200E+01  0.000E+00  1.326E+00
   1    5    6     2     2    1.7927E+01  0.0000E+00   1.8437E+01  5.094E-01  0.000E+00  0.000E+00  1.06751E+03  9.975E-01  1.200E+01  0.000E+00  1.333E+00
   1    6    6     2     3    1.8437E+01  0.0000E+00   1.8946E+01  5.094E-01  0.000E+00  0.000E+00  1.06281E+03  1.014E+00  1.200E+01  0.000E+00  1.338E+00
   1    7    6     2     4    1.8946E+01  0.0000E+00   1.9455E+01  5.094E-01  0.000E+00  0.000E+00  1.05811E+03  1.031E+00  1.200E+01  0.000E+00  1.344E+00
   1    8    6     2     5    1.9455E+01  0.0000E+00   1.9965E+01  5.094E-01  0.000E+00  0.000E+00  1.05341E+03  1.047E+00  1.200E+01  0.000E+00  1.349E+00
   1    3    5     3     1    1.0000E+01  2.8252E-01   1.1990E+01  2.273E+00  0.000E+00  0.000E+00  1.07555E+03  1.909E+00  9.636E+00  7.227E-02  1.955E+00
   1    3    6     3     2    1.1990E+01  2.4905E-01   1.4014E+01  2.273E+00  0.000E+00  0.000E+00  1.07264E+03  1.727E+00  8.909E+00  6.682E-02  1.864E+00
   1    3    7     3     3    1.4014E+01  1.9718E-01   1.5862E+01  2.045E+00  0.000E+00  0.000E+00  1.06987E+03  1.555E+00  8.218E+00  5.547E-02  1.777E+00
   1    4    8     3     4    1.5862E+01  2.2567E-01   1.8364E+01  2.727E+00  0.000E+00  0.000E+00  1.06682E+03  1.364E+00  7.455E+00  6.709E-02  1.682E+00
   1    5    8     3     5    1.8364E+01  1.5790E-01   2.0479E+01  2.273E+00  0.000E+00  0.000E+00  1.06362E+03  1.164E+00  6.655E+00  4.991E-02  1.582E+00
   1    6    8     3     6    2.0479E+01  5.5980E-02   2.1332E+01  9.091E-01  0.000E+00  0.000E+00  1.06158E+03  1.036E+00  6.145E+00  1.844E-02  1.518E+00
   1    5   10     4     1    1.0000E+01  0.0000E+00   1.0483E+01  4.830E-01  0.000E+00  0.000E+00  1.07838E+03  6.477E-01  1.000E+01  0.000E+00  1.216E+00
   1    5    9     4     2    1.0483E+01  0.0000E+00   1.1449E+01  9.659E-01  0.000E+00  0.000E+00  1.07158E+03  6.748E-01  1.000E+01  0.000E+00  1.225E+00
   1    6    8     4     3    1.1449E+01  0.0000E+00   1.2125E+01  6.761E-01  0.000E+00  0.000E+00  1.06389E+03  7.047E-01  1.000E+01  0.000E+00  1.235E+00
   1    6    8     5     1    3.3457E+01  5.0435E-01   3.3779E+01  8.267E-01  0.000E+00  0.000E+00  1.05903E+03  1.027E+00  3.131E+01  1.253E-01  1.342E+00
   1    7    7     5     2    3.3779E+01  6.3508E-01   3.4177E+01  1.033E+00  0.000E+00  0.000E+00  1.05453E+03  1.030E+00  3.151E+01  1.576E-01  1.343E+00
   1    8    7     5     3    3.4177E+01  4.4759E-01   3.4453E+01  7.233E-01  0.000E+00  0.000E+00  1.05028E+03  1.034E+00  3.170E+01  1.110E-01  1.345E+00
   1    8    6     5     4    3.4453E+01  3.2122E-01   3.4648E+01  5.167E-01  0.000E+00  0.000E+00  1.04729E+03  1.037E+00  3.183E+01  7.958E-02  1.346E+00
   1    9    6     6     1    5.4613E+01  0.0000E+00   5.6250E+01  1.636E+00  0.000E+00  0.000E+00  1.04470E+03  1.969E+00  1.200E+01  0.000E+00  1.656E+00
   1   10    7     6     2    5.6250E+01  0.0000E+00   5.7886E+01  1.636E+00  0.000E+00  0.000E+00  1.04019E+03  2.004E+00  1.200E+01  0.000E+00  1.668E+00
   1   11    7     6     3    5.7886E+01  0.0000E+00   5.9522E+01  1.636E+00  0.000E+00  0.000E+00  1.03567E+03  2.038E+00  1.200E+01  0.000E+00  1.679E+00
   1   12    7     6     4    5.9522E+01  0.0000E+00   6.1159E+01  1.636E+00  0.000E+00  0.000E+00  1.03116E+03  2.072E+00  1.200E+01  0.000E+00  1.691E+00
   1   13    7     6     5    6.1159E+01  0.0000E+00   6.1813E+01  6.545E-01  0.000E+00  0.000E+00  1.02800E+03  2.095E+00  1.200E+01  0.000E+00  1.015E+00
   1   14    9     7     1    1.5000E+02  1.5671E+00   1.4997E+02  1.540E+00  0.000E+00  0.000E+00  1.03987E+03  2.291E+00  5.531E+01  5.595E-01  9.337E-01
   1   13    8     7     2    1.4997E+02  2.5444E+00   1.4912E+02  1.694E+00  0.000E+00  0.000E+00  1.03479E+03  2.289E+00  5.530E+01  6.153E-01  1.378E+00
   1   13    7     7     3    1.4912E+02  2.6523E+00   1.4801E+02  1.540E+00  0.000E+00  0.000E+00  1.02970E+03  2.284E+00  5.528E+01  5.591E-01  1.581E+00
   1   13    6     8     1    2.0982E+02  2.3273E+00   2.1569E+02  8.196E+00  0.000E+00  0.000E+00  1.02509E+03  3.211E+00  4.656E+01  4.745E-01  1.635E+00
   1   13    5     8     2    2.1569E+02  1.7185E+00   2.2217E+02  8.196E+00  0.000E+00  0.000E+00  1.01887E+03  3.246E+00  4.707E+01  4.796E-01  1.194E+00
   1   13    4     8     3    2.2217E+02  7.0562E-01   2.2966E+02  8.196E+00  0.000E+00  0.000E+00  1.01266E+03  3.284E+00  4.762E+01  4.853E-01  4.847E-01
   1   13    3     8     4    2.2966E+02 -1.9740E-01   2.3806E+02  8.196E+00  0.000E+00  0.000E+00  1.00645E+03  3.327E+00  4.825E+01  4.916E+00 -1.338E-02
   1   13    2     8     5    2.3806E+02 -6.7556E-01   2.4693E+02  8.196E+00  0.000E+00  0.000E+00  1.00025E+03  3.373E+00  4.891E+01  4.984E+00 -4.519E-02
   1   13    1     8     6    2.4693E+02 -5.9478E-01   2.5244E+02  4.918E+00  0.000E+00  0.000E+00  9.95285E+02  3.410E+00  4.944E+01  3.023E+00 -6.558E-02



 UBDSV3 SAVING "     NETRECHARGE" ON UNIT 100 AT TIME STEP    10, STRESS PERIOD   6
 UBDSV3 SAVING "    NETDISCHARGE" ON UNIT 101 AT TIME STEP    10, STRESS PERIOD   6
 UBDSV3 SAVING "           GW ET" ON UNIT  61 AT TIME STEP    10, STRESS PERIOD   6
 UBDSV3 SAVING "    UZF RECHARGE" ON UNIT  61 AT TIME STEP    10, STRESS PERIOD   6
 UBDSV3 SAVING " SURFACE LEAKAGE" ON UNIT  61 AT TIME STEP    10, STRESS PERIOD   6
 UBDSV3 SAVING "       HORT+DUNN" ON UNIT  61 AT TIME STEP    10, STRESS PERIOD   6
 UBDSV3 SAVING "  STORAGE CHANGE" ON UNIT  61 AT TIME STEP    10, STRESS PERIOD   6


UNSATURATED ZONE PACKAGE VOLUMETRIC BUDGET FOR  TIME STEP    10 STRESS PERIOD    6
  ------------------------------------------------------------------------------



     CUMULATIVE VOLUMES      L**3       RATES FOR THIS TIME STEP      L**3/T
     ------------------                 ------------------------

           IN:                                      IN:
           ---                                      ---
        INFILTRATION =    41928873.5420          INFILTRATION =           2.9000

          OUT:                                     OUT:
          ----                                     ----
              UZF ET =     9396286.8683                UZF ET =           1.1603
        UZF RECHARGE =     7880960.6654          UZF RECHARGE =       0.0000E+00

            IN - OUT =    24651626.0083              IN - OUT =           1.7397

          STORAGE:                                 STORAGE:
          --------                                 --------
      STORAGE CHANGE =    24651624.5666        STORAGE CHANGE =           1.7397

 PERCENT DISCREPANCY IS DIFFERENCE BETWEEN IN-OUT MINUS CHANGE IN STORAGE
 DIVIDED BY THE AVERAGE OF IN AND OUT TIMES 100

 PERCENT DISCREPANCY =           0.00     PERCENT DISCREPANCY =           0.00






1
  VOLUMETRIC BUDGET FOR ENTIRE MODEL AT END OF TIME STEP   10, STRESS PERIOD   6
  ------------------------------------------------------------------------------

     CUMULATIVE VOLUMES      L**3       RATES FOR THIS TIME STEP      L**3/T
     ------------------                 ------------------------

           IN:                                      IN:
           ---                                      ---
             STORAGE =   341839072.0000               STORAGE =          11.3742
       CONSTANT HEAD =           0.0000         CONSTANT HEAD =           0.0000
               WELLS =           0.0000                 WELLS =           0.0000
     HEAD DEP BOUNDS =     4345378.5000       HEAD DEP BOUNDS =           0.3013
      STREAM LEAKAGE =   221293136.0000        STREAM LEAKAGE =          15.8768
        UZF RECHARGE =     7880964.5000          UZF RECHARGE =           0.0000
               GW ET =           0.0000                 GW ET =           0.0000
     SURFACE LEAKAGE =           0.0000       SURFACE LEAKAGE =           0.0000

            TOTAL IN =   575358528.0000              TOTAL IN =          27.5523

          OUT:                                     OUT:
          ----                                     ----
             STORAGE =    35175236.0000               STORAGE =          19.6516
       CONSTANT HEAD =           0.0000         CONSTANT HEAD =           0.0000
               WELLS =   420480000.0000                 WELLS =           0.0000
     HEAD DEP BOUNDS =     4144992.7500       HEAD DEP BOUNDS =           0.2843
      STREAM LEAKAGE =    39172296.0000        STREAM LEAKAGE =           1.4677
        UZF RECHARGE =           0.0000          UZF RECHARGE =           0.0000
               GW ET =    76399720.0000                 GW ET =           6.1482
     SURFACE LEAKAGE =           0.0000       SURFACE LEAKAGE =           0.0000

           TOTAL OUT =   575372224.0000             TOTAL OUT =          27.5519

            IN - OUT =      -13696.0000              IN - OUT =       4.2343E-04

 PERCENT DISCREPANCY =          -0.00     PERCENT DISCREPANCY =           0.00






         TIME SUMMARY AT END OF TIME STEP   10 IN STRESS PERIOD    6
                    SECONDS     MINUTES      HOURS       DAYS        YEARS
                    -----------------------------------------------------------
   TIME STEP LENGTH 1.95033E+05  3250.6      54.176      2.2573     6.18023E-03
 STRESS PERIOD TIME 1.31823E+06  21971.      366.18      15.257     4.17723E-02
         TOTAL TIME 1.44582E+07 2.40970E+05  4016.2      167.34     0.45815    
1
 
 SOLVING FOR HEAD 
                                                   Max.-Head-Change                         Max.-Flux-Residual
  Residual-Control   Outer-Iter.   Inner-Iter.     Column Row Layer    Maximum-Head-Change  Column Row Layer    Maximum-Flux-Residual          L2-NORM 
          0                 1           2             4    9     1       0.1002146969E+00       4    9    1         0.2172493646E+01      0.6309479074E+01
          0                 2           2             4    9     1      -0.9930525409E-02       4    9    1        -0.2172539775E+00      0.6309135020E+00
          0                 3           2             4    9     1       0.8856282952E-03       4    9    1         0.1955281509E-01      0.5677908778E-01
          0                 4           1             4    9     1      -0.7029514718E-04       4    9    1        -0.1566181243E-02      0.4547746830E-02

    ------------------------------------------------
       NWT REQUIRED            4 OUTER ITERATIONS 
       AND A TOTAL OF          7 INNER ITERATIONS.
    ------------------------------------------------

 NO OUTPUT CONTROL FOR STRESS PERIOD    6   TIME STEP   11
 
 SOLVING FOR HEAD 
                                                   Max.-Head-Change                         Max.-Flux-Residual
  Residual-Control   Outer-Iter.   Inner-Iter.     Column Row Layer    Maximum-Head-Change  Column Row Layer    Maximum-Flux-Residual          L2-NORM 
          0                 1           2             4    8     1       0.1079492229E+00       4    9    1         0.2127100695E+01      0.6092556647E+01
          0                 2           2             4    8     1      -0.1069689104E-01       4    9    1        -0.2127158332E+00      0.6092346081E+00
          0                 3           2             4    8     1       0.9539753119E-03       4    9    1         0.1914437076E-01      0.5482905481E-01
          0                 4           1             4    8     1      -0.7572006166E-04       4    9    1        -0.1533464939E-02      0.4391624216E-02

    ------------------------------------------------
       NWT REQUIRED            4 OUTER ITERATIONS 
       AND A TOTAL OF          7 INNER ITERATIONS.
    ------------------------------------------------

 NO OUTPUT CONTROL FOR STRESS PERIOD    6   TIME STEP   12
 
 SOLVING FOR HEAD 
                                                   Max.-Head-Change                         Max.-Flux-Residual
  Residual-Control   Outer-Iter.   Inner-Iter.     Column Row Layer    Maximum-Head-Change  Column Row Layer    Maximum-Flux-Residual          L2-NORM 
          0                 1           2             4    8     1       0.1163134888E+00       4    8    1         0.2082972349E+01      0.5873450262E+01
          0                 2           2             4    8     1      -0.1152577462E-01       4    8    1        -0.2083008201E+00      0.5873346822E+00
          0                 3           2             4    8     1       0.1027896685E-02       4    8    1         0.1874704093E-01      0.5285886176E-01
          0                 4           1             4    8     1      -0.8158744095E-04       4    8    1        -0.1501638640E-02      0.4233890250E-02

    ------------------------------------------------
       NWT REQUIRED            4 OUTER ITERATIONS 
       AND A TOTAL OF          7 INNER ITERATIONS.
    ------------------------------------------------

 NO OUTPUT CONTROL FOR STRESS PERIOD    6   TIME STEP   13
 
 SOLVING FOR HEAD 
                                                   Max.-Head-Change                         Max.-Flux-Residual
  Residual-Control   Outer-Iter.   Inner-Iter.     Column Row Layer    Maximum-Head-Change  Column Row Layer    Maximum-Flux-Residual          L2-NORM 
          0                 1           2             4    8     1       0.1249621661E+00       4    8    1         0.2040333695E+01      0.5652651845E+01
          0                 2           2             4    8     1      -0.1238286486E-01       4    8    1        -0.2040383771E+00      0.5652629771E+00
          0                 3           2             4    8     1       0.1104333361E-02       4    8    1         0.1836340705E-01      0.5087295770E-01
          0                 4           1             4    8     1      -0.8765446819E-04       4    8    1        -0.1470909668E-02      0.4074848174E-02

    ------------------------------------------------
       NWT REQUIRED            4 OUTER ITERATIONS 
       AND A TOTAL OF          7 INNER ITERATIONS.
    ------------------------------------------------

 NO OUTPUT CONTROL FOR STRESS PERIOD    6   TIME STEP   14
 
 SOLVING FOR HEAD 
                                                   Max.-Head-Change                         Max.-Flux-Residual
  Residual-Control   Outer-Iter.   Inner-Iter.     Column Row Layer    Maximum-Head-Change  Column Row Layer    Maximum-Flux-Residual          L2-NORM 
          0                 1           2             4    8     1       0.1338241553E+00       4    8    1         0.1992771415E+01      0.5430626820E+01
          0                 2           2             4    8     1      -0.1326112284E-01       4    8    1        -0.1992838882E+00      0.5430662693E+00
          0                 3           2             4    8     1       0.1182657528E-02       4    8    1         0.1793548591E-01      0.4887562897E-01
          0                 4           1             4    8     1      -0.9387131345E-04       4    8    1        -0.1436633314E-02      0.3914908001E-02

    ------------------------------------------------
       NWT REQUIRED            4 OUTER ITERATIONS 
       AND A TOTAL OF          7 INNER ITERATIONS.
    ------------------------------------------------

 OUTPUT CONTROL FOR STRESS PERIOD    6   TIME STEP   15
    PRINT BUDGET
    PRINT HEAD FOR ALL LAYERS
    SAVE HEAD FOR ALL LAYERS
    SAVE BUDGET

  HEAD DEP BOUNDS   PERIOD    6   STEP    15
 BOUNDARY      1   LAYER   1   ROW    13   COL     1   RATE   -0.285101    
 BOUNDARY      2   LAYER   1   ROW    14   COL     9   RATE    0.301421    



 STREAM LISTING     PERIOD      6   STEP       15

 LAYER ROW COL. STREAM  RCH.  FLOW INTO     FLOW TO   FLOW OUT OF   OVRLND.     DIRECT     STREAM       STREAM     STREAM     STREAM   STREAMBED  STREAMBED
                SEG.NO.  NO.  STRM. RCH.    AQUIFER    STRM. RCH.    RUNOFF     PRECIP       ET          HEAD       DEPTH      WIDTH   CONDCTNC.   GRADIENT

   1    1    1     1     1    2.5000E+01  2.4674E-01   2.5446E+01  6.931E-01  0.000E+00  0.000E+00  1.09423E+03  1.183E+00  1.311E+01  5.898E-02  1.394E+00
   1    2    2     1     2    2.5446E+01  3.8786E-01   2.6137E+01  1.078E+00  0.000E+00  0.000E+00  1.08925E+03  1.192E+00  1.322E+01  9.253E-02  1.397E+00
   1    3    3     1     3    2.6137E+01  3.3630E-01   2.6724E+01  9.241E-01  0.000E+00  0.000E+00  1.08362E+03  1.201E+00  1.334E+01  8.005E-02  1.400E+00
   1    3    4     1     4    2.6724E+01  3.1418E-01   2.7265E+01  8.548E-01  0.000E+00  0.000E+00  1.07862E+03  1.209E+00  1.345E+01  7.464E-02  1.403E+00
   1    4    5     2     1    1.7265E+01  0.0000E+00   1.7927E+01  6.623E-01  0.000E+00  0.000E+00  1.07291E+03  9.781E-01  1.200E+01  0.000E+00  1.326E+00
   1    5    6     2     2    1.7927E+01  0.0000E+00   1.8437E+01  5.094E-01  0.000E+00  0.000E+00  1.06751E+03  9.975E-01  1.200E+01  0.000E+00  1.333E+00
   1    6    6     2     3    1.8437E+01  0.0000E+00   1.8946E+01  5.094E-01  0.000E+00  0.000E+00  1.06281E+03  1.014E+00  1.200E+01  0.000E+00  1.338E+00
   1    7    6     2     4    1.8946E+01  0.0000E+00   1.9455E+01  5.094E-01  0.000E+00  0.000E+00  1.05811E+03  1.031E+00  1.200E+01  0.000E+00  1.344E+00
   1    8    6     2     5    1.9455E+01  0.0000E+00   1.9965E+01  5.094E-01  0.000E+00  0.000E+00  1.05341E+03  1.047E+00  1.200E+01  0.000E+00  1.349E+00
   1    3    5     3     1    1.0000E+01  2.8252E-01   1.1990E+01  2.273E+00  0.000E+00  0.000E+00  1.07555E+03  1.909E+00  9.636E+00  7.227E-02  1.955E+00
   1    3    6     3     2    1.1990E+01  2.4905E-01   1.4014E+01  2.273E+00  0.000E+00  0.000E+00  1.07264E+03  1.727E+00  8.909E+00  6.682E-02  1.864E+00
   1    3    7     3     3    1.4014E+01  1.9718E-01   1.5862E+01  2.045E+00  0.000E+00  0.000E+00  1.06987E+03  1.555E+00  8.218E+00  5.547E-02  1.777E+00
   1    4    8     3     4    1.5862E+01  2.2567E-01   1.8364E+01  2.727E+00  0.000E+00  0.000E+00  1.06682E+03  1.364E+00  7.455E+00  6.709E-02  1.682E+00
   1    5    8     3     5    1.8364E+01  1.5790E-01   2.0479E+01  2.273E+00  0.000E+00  0.000E+00  1.06362E+03  1.164E+00  6.655E+00  4.991E-02  1.582E+00
   1    6    8     3     6    2.0479E+01  5.5980E-02   2.1332E+01  9.091E-01  0.000E+00  0.000E+00  1.06158E+03  1.036E+00  6.145E+00  1.844E-02  1.518E+00
   1    5   10     4     1    1.0000E+01  0.0000E+00   1.0483E+01  4.830E-01  0.000E+00  0.000E+00  1.07838E+03  6.477E-01  1.000E+01  0.000E+00  1.216E+00
   1    5    9     4     2    1.0483E+01  0.0000E+00   1.1449E+01  9.659E-01  0.000E+00  0.000E+00  1.07158E+03  6.748E-01  1.000E+01  0.000E+00  1.225E+00
   1    6    8     4     3    1.1449E+01  0.0000E+00   1.2125E+01  6.761E-01  0.000E+00  0.000E+00  1.06389E+03  7.047E-01  1.000E+01  0.000E+00  1.235E+00
   1    6    8     5     1    3.3457E+01  5.0435E-01   3.3779E+01  8.267E-01  0.000E+00  0.000E+00  1.05903E+03  1.027E+00  3.131E+01  1.253E-01  1.342E+00
   1    7    7     5     2    3.3779E+01  6.3508E-01   3.4177E+01  1.033E+00  0.000E+00  0.000E+00  1.05453E+03  1.030E+00  3.151E+01  1.576E-01  1.343E+00
   1    8    7     5     3    3.4177E+01  4.4759E-01   3.4453E+01  7.233E-01  0.000E+00  0.000E+00  1.05028E+03  1.034E+00  3.170E+01  1.110E-01  1.345E+00
   1    8    6     5     4    3.4453E+01  3.2122E-01   3.4648E+01  5.167E-01  0.000E+00  0.000E+00  1.04729E+03  1.037E+00  3.183E+01  7.958E-02  1.346E+00
   1    9    6     6     1    5.4613E+01  0.0000E+00   5.6250E+01  1.636E+00  0.000E+00  0.000E+00  1.04470E+03  1.969E+00  1.200E+01  0.000E+00  1.656E+00
   1   10    7     6     2    5.6250E+01  0.0000E+00   5.7886E+01  1.636E+00  0.000E+00  0.000E+00  1.04019E+03  2.004E+00  1.200E+01  0.000E+00  1.668E+00
   1   11    7     6     3    5.7886E+01  0.0000E+00   5.9522E+01  1.636E+00  0.000E+00  0.000E+00  1.03567E+03  2.038E+00  1.200E+01  0.000E+00  1.679E+00
   1   12    7     6     4    5.9522E+01  0.0000E+00   6.1159E+01  1.636E+00  0.000E+00  0.000E+00  1.03116E+03  2.072E+00  1.200E+01  0.000E+00  1.691E+00
   1   13    7     6     5    6.1159E+01  0.0000E+00   6.1813E+01  6.545E-01  0.000E+00  0.000E+00  1.02800E+03  2.095E+00  1.200E+01  0.000E+00  1.022E+00
   1   14    9     7     1    1.5000E+02  1.5687E+00   1.4997E+02  1.540E+00  0.000E+00  0.000E+00  1.03987E+03  2.291E+00  5.531E+01  5.595E-01  9.347E-01
   1   13    8     7     2    1.4997E+02  2.5487E+00   1.4912E+02  1.694E+00  0.000E+00  0.000E+00  1.03479E+03  2.289E+00  5.530E+01  6.153E-01  1.381E+00
   1   13    7     7     3    1.4912E+02  2.6633E+00   1.4799E+02  1.540E+00  0.000E+00  0.000E+00  1.02970E+03  2.284E+00  5.528E+01  5.591E-01  1.588E+00
   1   13    6     8     1    2.0981E+02  2.3416E+00   2.1566E+02  8.196E+00  0.000E+00  0.000E+00  1.02509E+03  3.211E+00  4.656E+01  4.745E-01  1.645E+00
   1   13    5     8     2    2.1566E+02  1.7373E+00   2.2212E+02  8.196E+00  0.000E+00  0.000E+00  1.01887E+03  3.246E+00  4.706E+01  4.796E-01  1.207E+00
   1   13    4     8     3    2.2212E+02  7.2145E-01   2.2960E+02  8.196E+00  0.000E+00  0.000E+00  1.01266E+03  3.284E+00  4.762E+01  4.853E-01  4.956E-01
   1   13    3     8     4    2.2960E+02 -2.5406E-01   2.3805E+02  8.196E+00  0.000E+00  0.000E+00  1.00645E+03  3.327E+00  4.824E+01  4.916E+00 -1.723E-02
   1   13    2     8     5    2.3805E+02 -7.9236E-01   2.4704E+02  8.196E+00  0.000E+00  0.000E+00  1.00025E+03  3.373E+00  4.891E+01  4.984E+00 -5.299E-02
   1   13    1     8     6    2.4704E+02 -6.5612E-01   2.5261E+02  4.918E+00  0.000E+00  0.000E+00  9.95286E+02  3.411E+00  4.945E+01  3.024E+00 -7.233E-02



 UBDSV3 SAVING "     NETRECHARGE" ON UNIT 100 AT TIME STEP    15, STRESS PERIOD   6
 UBDSV3 SAVING "    NETDISCHARGE" ON UNIT 101 AT TIME STEP    15, STRESS PERIOD   6
 UBDSV3 SAVING "           GW ET" ON UNIT  61 AT TIME STEP    15, STRESS PERIOD   6
 UBDSV3 SAVING "    UZF RECHARGE" ON UNIT  61 AT TIME STEP    15, STRESS PERIOD   6
 UBDSV3 SAVING " SURFACE LEAKAGE" ON UNIT  61 AT TIME STEP    15, STRESS PERIOD   6
 UBDSV3 SAVING "       HORT+DUNN" ON UNIT  61 AT TIME STEP    15, STRESS PERIOD   6
 UBDSV3 SAVING "  STORAGE CHANGE" ON UNIT  61 AT TIME STEP    15, STRESS PERIOD   6


UNSATURATED ZONE PACKAGE VOLUMETRIC BUDGET FOR  TIME STEP    15 STRESS PERIOD    6
  ------------------------------------------------------------------------------



     CUMULATIVE VOLUMES      L**3       RATES FOR THIS TIME STEP      L**3/T
     ------------------                 ------------------------

           IN:                                      IN:
           ---                                      ---
        INFILTRATION =    45727195.8936          INFILTRATION =           2.9000

          OUT:                                     OUT:
          ----                                     ----
              UZF ET =    10927708.2897                UZF ET =           1.1749
        UZF RECHARGE =     7880960.6654          UZF RECHARGE =       0.0000E+00

            IN - OUT =    26918526.9385              IN - OUT =           1.7251

          STORAGE:                                 STORAGE:
          --------                                 --------
      STORAGE CHANGE =    26918525.5431        STORAGE CHANGE =           1.7251

 PERCENT DISCREPANCY IS DIFFERENCE BETWEEN IN-OUT MINUS CHANGE IN STORAGE
 DIVIDED BY THE AVERAGE OF IN AND OUT TIMES 100

 PERCENT DISCREPANCY =           0.00     PERCENT DISCREPANCY =           0.00






1
              HEAD IN LAYER   1 AT END OF TIME STEP    15 IN STRESS PERIOD    6
  -----------------------------------------------------------------------------

           1       2       3       4       5       6       7       8       9      10
 ...................................................................................
   1  1029.24 1025.67 6999.00 6999.00 6999.00 6999.00 6999.00 6999.00 6999.00 6999.00
   2  1026.03 1021.14 1019.12 6999.00 6999.00 1017.55 1017.82 1017.96 6999.00 6999.00
   3  6999.00 1018.12 1016.90 1015.86 1015.77 1016.29 1017.00 1017.19 6999.00 6999.00
   4  1016.09 1016.13 1015.19 1014.07 1013.77 1014.03 1015.01 1016.45 1016.16 6999.00
   5  1015.30 1014.49 1013.19 1012.05 1012.26 1013.06 1013.94 1014.81 1015.19 1015.48
   6  1014.50 1013.32 1011.30 1009.93 1010.49 1012.05 1013.53 1014.64 1015.12 1015.81
   7  1013.98 1012.47 1010.13 1008.53 1009.39 1011.40 1013.36 1014.25 1015.34 6999.00
   8  6999.00 1011.86 1009.67 1008.00 1009.03 1011.22 1013.18 1014.56 1016.26 6999.00
   9  6999.00 1011.37 1009.66 1008.36 1009.43 1011.50 1013.40 1015.37 1017.84 6999.00
  10  6999.00 1010.82 1010.02 1009.50 1010.60 1012.65 1014.43 1016.76 1019.54 1020.43
  11  6999.00 1009.55 1010.21 1011.02 1012.46 1014.61 1016.64 1019.55 1022.78 6999.00
  12  1000.87 1005.70 1009.05 1011.44 1013.98 1017.02 1019.76 1024.56 1028.43 6999.00
  13   995.50 1000.41 1006.50 1011.17 1015.25 1020.15 1024.94 1030.65 1033.69 6999.00
  14  6999.00 1005.59 1008.32 1012.24 1016.26 1020.63 1025.87 1032.11 1037.07 6999.00
  15  6999.00 6999.00 1011.77 1014.13 1017.14 1019.88 6999.00 6999.00 6999.00 6999.00

 HEAD WILL BE SAVED ON UNIT   58 AT END OF TIME STEP   15, STRESS PERIOD    6
1
  VOLUMETRIC BUDGET FOR ENTIRE MODEL AT END OF TIME STEP   15, STRESS PERIOD   6
  ------------------------------------------------------------------------------

     CUMULATIVE VOLUMES      L**3       RATES FOR THIS TIME STEP      L**3/T
     ------------------                 ------------------------

           IN:                                      IN:
           ---                                      ---
             STORAGE =   354510496.0000               STORAGE =           8.9391
       CONSTANT HEAD =           0.0000         CONSTANT HEAD =           0.0000
               WELLS =           0.0000                 WELLS =           0.0000
     HEAD DEP BOUNDS =     4740110.5000       HEAD DEP BOUNDS =           0.3014
      STREAM LEAKAGE =   242140352.0000        STREAM LEAKAGE =          15.9428
        UZF RECHARGE =     7880964.5000          UZF RECHARGE =           0.0000
               GW ET =           0.0000                 GW ET =           0.0000
     SURFACE LEAKAGE =           0.0000       SURFACE LEAKAGE =           0.0000

            TOTAL IN =   609271936.0000              TOTAL IN =          25.1833

          OUT:                                     OUT:
          ----                                     ----
             STORAGE =    58523668.0000               STORAGE =          17.0483
       CONSTANT HEAD =           0.0000         CONSTANT HEAD =           0.0000
               WELLS =   420480000.0000                 WELLS =           0.0000
     HEAD DEP BOUNDS =     4518054.0000       HEAD DEP BOUNDS =           0.2851
      STREAM LEAKAGE =    41311940.0000        STREAM LEAKAGE =           1.7025
        UZF RECHARGE =           0.0000          UZF RECHARGE =           0.0000
               GW ET =    84451424.0000                 GW ET =           6.1469
     SURFACE LEAKAGE =           0.0000       SURFACE LEAKAGE =           0.0000

           TOTAL OUT =   609285120.0000             TOTAL OUT =          25.1828

            IN - OUT =      -13184.0000              IN - OUT =       4.1771E-04

 PERCENT DISCREPANCY =          -0.00     PERCENT DISCREPANCY =           0.00






         TIME SUMMARY AT END OF TIME STEP   15 IN STRESS PERIOD    6
                    SECONDS     MINUTES      HOURS       DAYS        YEARS
                    -----------------------------------------------------------
   TIME STEP LENGTH 3.14103E+05  5235.0      87.251      3.6354     9.95332E-03
 STRESS PERIOD TIME 2.62800E+06  43800.      730.00      30.417     8.32763E-02
         TOTAL TIME 1.57680E+07 2.62800E+05  4380.0      182.50     0.49966    
1
1
                            STRESS PERIOD NO.    7, LENGTH =   2628000.    
                            -----------------------------------------------

                              NUMBER OF TIME STEPS =    15

                               MULTIPLIER FOR DELT =     1.100

                            INITIAL TIME STEP SIZE =   82713.07    

 WELL NO.  LAYER   ROW   COL   STRESS RATE         
 --------------------------------------------------
      1      1      6      4      -2.000    
      2      1      6      5      -2.000    
      3      1      7      4      -2.000    
      4      1      7      5      -2.000    
      5      1      8      4      -2.000    
      6      1      8      5      -2.000    
      7      1      9      4      -2.000    
      8      1      9      5      -2.000    
      9      1     10      4      -2.000    
     10      1     10      5      -2.000    

     10 WELLS

 REUSING NON-PARAMETER GHB CELLS FROM LAST STRESS PERIOD

      2 GHB CELLS

 REUSING STREAM SEGMENT DATA FROM LAST STRESS PERIOD



            AREAL INFILTRATION RATE
 READING ON UNIT   19 WITH FORMAT: (10F4.0)            

            1           2           3           4           5           6           7           8           9          10
 ........................................................................................................................
   1   3.0000E-09  6.0000E-09   0.000       0.000       0.000       0.000       0.000       0.000       0.000       0.000    
   2   6.0000E-09  3.0000E-09  6.0000E-09   0.000       0.000      2.4000E-08  2.4000E-08  1.5000E-08   0.000       0.000    
   3    0.000      1.5000E-08  3.0000E-09  3.0000E-09  2.4000E-08  2.4000E-08  1.5000E-08  1.5000E-08   0.000       0.000    
   4   2.4000E-08  1.5000E-08  3.0000E-09  3.0000E-09  3.0000E-09  3.0000E-09  3.0000E-09  3.0000E-09  6.0000E-09   0.000    
   5   2.4000E-08  1.5000E-08  3.0000E-09  3.0000E-09  3.0000E-09  3.0000E-09  3.0000E-09  3.0000E-09  3.0000E-09  3.0000E-09
   6   2.4000E-08  1.5000E-08  1.5000E-08  6.0000E-09  6.0000E-09  3.0000E-09  3.0000E-09  3.0000E-09  3.0000E-09  1.5000E-08
   7   2.4000E-08  1.5000E-08  1.5000E-08  6.0000E-09  6.0000E-09  3.0000E-09  3.0000E-09  6.0000E-09  6.0000E-09   0.000    
   8    0.000      1.5000E-08  1.5000E-08  6.0000E-09  6.0000E-09  3.0000E-09  3.0000E-09  6.0000E-09  1.5000E-08   0.000    
   9    0.000      1.5000E-08  1.5000E-08  6.0000E-09  6.0000E-09  3.0000E-09  3.0000E-09  6.0000E-09  1.5000E-08   0.000    
  10    0.000      1.5000E-08  1.5000E-08  6.0000E-09  6.0000E-09  3.0000E-09  3.0000E-09  6.0000E-09  1.5000E-08  2.4000E-08
  11    0.000      3.0000E-09  3.0000E-09  3.0000E-09  3.0000E-09  3.0000E-09  3.0000E-09  6.0000E-09  1.5000E-08   0.000    
  12   3.0000E-09  3.0000E-09  3.0000E-09  3.0000E-09  3.0000E-09  3.0000E-09  3.0000E-09  3.0000E-09  6.0000E-09   0.000    
  13   3.0000E-09  3.0000E-09  6.0000E-09  6.0000E-09  6.0000E-09  6.0000E-09  6.0000E-09  3.0000E-09  3.0000E-09   0.000    
  14    0.000      6.0000E-09  1.5000E-08  1.5000E-08  1.5000E-08  1.5000E-08  1.5000E-08  6.0000E-09  3.0000E-09   0.000    
  15    0.000       0.000      2.4000E-08  2.4000E-08  2.4000E-08  2.4000E-08   0.000       0.000       0.000       0.000    

USING ET RATE FROM PREVIOUS STRESS PERIOD. CURRENT PERIOD IS:       7

 USING ET EXTINCTION DEPTH FROM PREVIOUS STRESS PERIOD. CURRENT PERIOD IS:       7

 USING EXTINCTION WATER CONTENT FROM PREVIOUS STRESS PERIOD. CURRENT PERIOD IS:       7
 
 SOLVING FOR HEAD 
                                                   Max.-Head-Change                         Max.-Flux-Residual
  Residual-Control   Outer-Iter.   Inner-Iter.     Column Row Layer    Maximum-Head-Change  Column Row Layer    Maximum-Flux-Residual          L2-NORM 
          0                 1           2             2   13     1      -0.1955698445E-01       2   13    1        -0.1162322701E+01      0.2790341968E+01
          0                 2           2             2   13     1       0.1883839433E-02       2   13    1         0.1129752992E+00      0.2764857539E+00
          0                 3           2             3   13     1      -0.1637202200E-03       3   13    1        -0.1002186149E-01      0.2464012441E-01
          0                 4           1             3   13     1       0.1281733865E-04       3   13    1         0.7918640476E-03      0.1952906426E-02

    ------------------------------------------------
       NWT REQUIRED            4 OUTER ITERATIONS 
       AND A TOTAL OF          7 INNER ITERATIONS.
    ------------------------------------------------

 NO OUTPUT CONTROL FOR STRESS PERIOD    7   TIME STEP    1
 
 SOLVING FOR HEAD 
                                                   Max.-Head-Change                         Max.-Flux-Residual
  Residual-Control   Outer-Iter.   Inner-Iter.     Column Row Layer    Maximum-Head-Change  Column Row Layer    Maximum-Flux-Residual          L2-NORM 
          0                 1           2             2   13     1      -0.1981567280E-01       2   13    1        -0.1078500433E+01      0.2671549497E+01
          0                 2           2             2   13     1       0.1903518707E-02       2   13    1         0.1045378526E+00      0.2646222948E+00
          0                 3           2             2   13     1      -0.1639722774E-03       3   13    1        -0.9160120130E-02      0.2357480671E-01
          0                 4           1             3   13     1       0.1275904058E-04       3   13    1         0.7221489923E-03      0.1867606949E-02

    ------------------------------------------------
       NWT REQUIRED            4 OUTER ITERATIONS 
       AND A TOTAL OF          7 INNER ITERATIONS.
    ------------------------------------------------

 NO OUTPUT CONTROL FOR STRESS PERIOD    7   TIME STEP    2
 
 SOLVING FOR HEAD 
                                                   Max.-Head-Change                         Max.-Flux-Residual
  Residual-Control   Outer-Iter.   Inner-Iter.     Column Row Layer    Maximum-Head-Change  Column Row Layer    Maximum-Flux-Residual          L2-NORM 
          0                 1           2             2   13     1      -0.1992405597E-01       2   13    1        -0.9936930828E+00      0.2553922064E+01
          0                 2           2             2   13     1       0.1908152653E-02       2   13    1         0.9602416890E-01      0.2529035266E+00
          0                 3           2             2   13     1      -0.1638067533E-03       2   13    1        -0.8317429673E-02      0.2252579270E-01
          0                 4           1             3   13     1       0.1261436557E-04       3   13    1         0.6544205444E-03      0.1784618797E-02

    ------------------------------------------------
       NWT REQUIRED            4 OUTER ITERATIONS 
       AND A TOTAL OF          7 INNER ITERATIONS.
    ------------------------------------------------

 NO OUTPUT CONTROL FOR STRESS PERIOD    7   TIME STEP    3
 
 SOLVING FOR HEAD 
                                                   Max.-Head-Change                         Max.-Flux-Residual
  Residual-Control   Outer-Iter.   Inner-Iter.     Column Row Layer    Maximum-Head-Change  Column Row Layer    Maximum-Flux-Residual          L2-NORM 
          0                 1           2             2   13     1      -0.1986598999E-01       2   13    1        -0.9085353963E+00      0.2438591266E+01
          0                 2           2             2   13     1       0.1896260042E-02       2   13    1         0.8749994687E-01      0.2414429993E+00
          0                 3           2             2   13     1      -0.1621751211E-03       2   13    1        -0.7550366237E-02      0.2150234153E-01
          0                 4           1             3   13     1       0.1233673883E-04       3   13    1         0.5869162742E-03      0.1703566673E-02

    ------------------------------------------------
       NWT REQUIRED            4 OUTER ITERATIONS 
       AND A TOTAL OF          7 INNER ITERATIONS.
    ------------------------------------------------

 NO OUTPUT CONTROL FOR STRESS PERIOD    7   TIME STEP    4
 
 SOLVING FOR HEAD 
                                                   Max.-Head-Change                         Max.-Flux-Residual
  Residual-Control   Outer-Iter.   Inner-Iter.     Column Row Layer    Maximum-Head-Change  Column Row Layer    Maximum-Flux-Residual          L2-NORM 
          0                 1           2             2   13     1      -0.1962877953E-01       2   13    1        -0.8237460725E+00      0.2326738608E+01
          0                 2           2             2   13     1       0.1866721690E-02       2   13    1         0.7903872229E-01      0.2303588126E+00
          0                 3           2             2   13     1      -0.1589821346E-03       2   13    1        -0.6791448629E-02      0.2051538681E-01
          0                 4           1             2   13     1       0.1197521010E-04       3   13    1         0.5209616647E-03      0.1625013440E-02

    ------------------------------------------------
       NWT REQUIRED            4 OUTER ITERATIONS 
       AND A TOTAL OF          7 INNER ITERATIONS.
    ------------------------------------------------

 OUTPUT CONTROL FOR STRESS PERIOD    7   TIME STEP    5
    PRINT BUDGET
    SAVE BUDGET

            WELLS   PERIOD    7   STEP   5
 WELL      1   LAYER   1   ROW     6   COL     4   RATE    -2.00000    
 WELL      2   LAYER   1   ROW     6   COL     5   RATE    -2.00000    
 WELL      3   LAYER   1   ROW     7   COL     4   RATE    -2.00000    
 WELL      4   LAYER   1   ROW     7   COL     5   RATE    -2.00000    
 WELL      5   LAYER   1   ROW     8   COL     4   RATE    -2.00000    
 WELL      6   LAYER   1   ROW     8   COL     5   RATE    -2.00000    
 WELL      7   LAYER   1   ROW     9   COL     4   RATE    -2.00000    
 WELL      8   LAYER   1   ROW     9   COL     5   RATE    -2.00000    
 WELL      9   LAYER   1   ROW    10   COL     4   RATE    -2.00000    
 WELL     10   LAYER   1   ROW    10   COL     5   RATE    -2.00000    

  HEAD DEP BOUNDS   PERIOD    7   STEP     5
 BOUNDARY      1   LAYER   1   ROW    13   COL     1   RATE   -0.282764    
 BOUNDARY      2   LAYER   1   ROW    14   COL     9   RATE    0.301471    



 STREAM LISTING     PERIOD      7   STEP        5

 LAYER ROW COL. STREAM  RCH.  FLOW INTO     FLOW TO   FLOW OUT OF   OVRLND.     DIRECT     STREAM       STREAM     STREAM     STREAM   STREAMBED  STREAMBED
                SEG.NO.  NO.  STRM. RCH.    AQUIFER    STRM. RCH.    RUNOFF     PRECIP       ET          HEAD       DEPTH      WIDTH   CONDCTNC.   GRADIENT

   1    1    1     1     1    2.5000E+01  2.4557E-01   2.4935E+01  1.806E-01  0.000E+00  0.000E+00  1.09423E+03  1.180E+00  1.306E+01  5.875E-02  1.393E+00
   1    2    2     1     2    2.4935E+01  3.8140E-01   2.4835E+01  2.809E-01  0.000E+00  0.000E+00  1.08924E+03  1.178E+00  1.304E+01  9.128E-02  1.393E+00
   1    3    3     1     3    2.4835E+01  3.2634E-01   2.4749E+01  2.408E-01  0.000E+00  0.000E+00  1.08360E+03  1.177E+00  1.302E+01  7.813E-02  1.392E+00
   1    3    4     1     4    2.4749E+01  3.0139E-01   2.4670E+01  2.227E-01  0.000E+00  0.000E+00  1.07858E+03  1.176E+00  1.300E+01  7.218E-02  1.392E+00
   1    4    5     2     1    1.4670E+01  0.0000E+00   1.4817E+01  1.472E-01  0.000E+00  0.000E+00  1.07281E+03  8.797E-01  1.200E+01  0.000E+00  1.293E+00
   1    5    6     2     2    1.4817E+01  0.0000E+00   1.4931E+01  1.132E-01  0.000E+00  0.000E+00  1.06739E+03  8.843E-01  1.200E+01  0.000E+00  1.295E+00
   1    6    6     2     3    1.4931E+01  0.0000E+00   1.5044E+01  1.132E-01  0.000E+00  0.000E+00  1.06268E+03  8.883E-01  1.200E+01  0.000E+00  1.296E+00
   1    7    6     2     4    1.5044E+01  0.0000E+00   1.5157E+01  1.132E-01  0.000E+00  0.000E+00  1.05797E+03  8.924E-01  1.200E+01  0.000E+00  1.297E+00
   1    8    6     2     5    1.5157E+01  0.0000E+00   1.5270E+01  1.132E-01  0.000E+00  0.000E+00  1.05325E+03  8.964E-01  1.200E+01  0.000E+00  1.299E+00
   1    3    5     3     1    1.0000E+01  2.8252E-01   1.0367E+01  6.500E-01  0.000E+00  0.000E+00  1.07555E+03  1.909E+00  9.636E+00  7.227E-02  1.955E+00
   1    3    6     3     2    1.0367E+01  2.4905E-01   1.0768E+01  6.500E-01  0.000E+00  0.000E+00  1.07264E+03  1.727E+00  8.909E+00  6.682E-02  1.864E+00
   1    3    7     3     3    1.0768E+01  1.9718E-01   1.1156E+01  5.850E-01  0.000E+00  0.000E+00  1.06987E+03  1.555E+00  8.218E+00  5.547E-02  1.777E+00
   1    4    8     3     4    1.1156E+01  2.2567E-01   1.1711E+01  7.800E-01  0.000E+00  0.000E+00  1.06682E+03  1.364E+00  7.455E+00  6.709E-02  1.682E+00
   1    5    8     3     5    1.1711E+01  1.5790E-01   1.2203E+01  6.500E-01  0.000E+00  0.000E+00  1.06362E+03  1.164E+00  6.655E+00  4.991E-02  1.582E+00
   1    6    8     3     6    1.2203E+01  5.5980E-02   1.2407E+01  2.600E-01  0.000E+00  0.000E+00  1.06158E+03  1.036E+00  6.145E+00  1.844E-02  1.518E+00
   1    5   10     4     1    1.0000E+01  0.0000E+00   1.0125E+01  1.250E-01  0.000E+00  0.000E+00  1.07837E+03  6.409E-01  1.000E+01  0.000E+00  1.214E+00
   1    5    9     4     2    1.0125E+01  0.0000E+00   1.0375E+01  2.500E-01  0.000E+00  0.000E+00  1.07156E+03  6.480E-01  1.000E+01  0.000E+00  1.216E+00
   1    6    8     4     3    1.0375E+01  0.0000E+00   1.0550E+01  1.750E-01  0.000E+00  0.000E+00  1.06384E+03  6.561E-01  1.000E+01  0.000E+00  1.219E+00
   1    6    8     5     1    2.2957E+01  3.8743E-01   2.2789E+01  2.200E-01  0.000E+00  0.000E+00  1.05890E+03  8.972E-01  2.485E+01  9.941E-02  1.299E+00
   1    7    7     5     2    2.2789E+01  4.8158E-01   2.2583E+01  2.750E-01  0.000E+00  0.000E+00  1.05439E+03  8.946E-01  2.473E+01  1.237E-01  1.298E+00
   1    8    7     5     3    2.2583E+01  3.3534E-01   2.2440E+01  1.925E-01  0.000E+00  0.000E+00  1.05014E+03  8.922E-01  2.462E+01  8.616E-02  1.297E+00
   1    8    6     5     4    2.2440E+01  2.3865E-01   2.2339E+01  1.375E-01  0.000E+00  0.000E+00  1.04714E+03  8.905E-01  2.454E+01  6.134E-02  1.297E+00
   1    9    6     6     1    3.7609E+01  0.0000E+00   3.8052E+01  4.432E-01  0.000E+00  0.000E+00  1.04429E+03  1.566E+00  1.200E+01  0.000E+00  1.522E+00
   1   10    7     6     2    3.8052E+01  0.0000E+00   3.8495E+01  4.432E-01  0.000E+00  0.000E+00  1.03976E+03  1.577E+00  1.200E+01  0.000E+00  1.526E+00
   1   11    7     6     3    3.8495E+01  0.0000E+00   3.8939E+01  4.432E-01  0.000E+00  0.000E+00  1.03522E+03  1.587E+00  1.200E+01  0.000E+00  1.529E+00
   1   12    7     6     4    3.8939E+01  0.0000E+00   3.9382E+01  4.432E-01  0.000E+00  0.000E+00  1.03069E+03  1.598E+00  1.200E+01  0.000E+00  1.533E+00
   1   13    7     6     5    3.9382E+01  0.0000E+00   3.9559E+01  1.773E-01  0.000E+00  0.000E+00  1.02752E+03  1.606E+00  1.200E+01  0.000E+00  8.617E-01
   1   14    9     7     1    1.5000E+02  1.5674E+00   1.4884E+02  4.113E-01  0.000E+00  0.000E+00  1.03987E+03  2.288E+00  5.530E+01  5.593E-01  9.341E-01
   1   13    8     7     2    1.4884E+02  2.5431E+00   1.4675E+02  4.524E-01  0.000E+00  0.000E+00  1.03478E+03  2.280E+00  5.526E+01  6.148E-01  1.379E+00
   1   13    7     7     3    1.4675E+02  2.6562E+00   1.4451E+02  4.113E-01  0.000E+00  0.000E+00  1.02969E+03  2.268E+00  5.521E+01  5.583E-01  1.586E+00
   1   13    6     8     1    1.8407E+02  2.1557E+00   1.8420E+02  2.290E+00  0.000E+00  0.000E+00  1.02492E+03  3.042E+00  4.411E+01  4.495E-01  1.599E+00
   1   13    5     8     2    1.8420E+02  1.5539E+00   1.8494E+02  2.290E+00  0.000E+00  0.000E+00  1.01867E+03  3.045E+00  4.415E+01  4.499E-01  1.151E+00
   1   13    4     8     3    1.8494E+02  5.7897E-01   1.8665E+02  2.290E+00  0.000E+00  0.000E+00  1.01243E+03  3.052E+00  4.426E+01  4.510E-01  4.279E-01
   1   13    3     8     4    1.8665E+02 -1.0247E+00   1.8996E+02  2.290E+00  0.000E+00  0.000E+00  1.00619E+03  3.068E+00  4.448E+01  4.533E+00 -7.535E-02
   1   13    2     8     5    1.8996E+02 -1.6088E+00   1.9386E+02  2.290E+00  0.000E+00  0.000E+00  9.99965E+02  3.090E+00  4.480E+01  4.565E+00 -1.175E-01
   1   13    1     8     6    1.9386E+02 -1.2597E+00   1.9650E+02  1.374E+00  0.000E+00  0.000E+00  9.94984E+02  3.109E+00  4.508E+01  2.756E+00 -1.523E-01



 UBDSV3 SAVING "     NETRECHARGE" ON UNIT 100 AT TIME STEP     5, STRESS PERIOD   7
 UBDSV3 SAVING "    NETDISCHARGE" ON UNIT 101 AT TIME STEP     5, STRESS PERIOD   7
 UBDSV3 SAVING "           GW ET" ON UNIT  61 AT TIME STEP     5, STRESS PERIOD   7
 UBDSV3 SAVING "    UZF RECHARGE" ON UNIT  61 AT TIME STEP     5, STRESS PERIOD   7
 UBDSV3 SAVING " SURFACE LEAKAGE" ON UNIT  61 AT TIME STEP     5, STRESS PERIOD   7
 UBDSV3 SAVING "       HORT+DUNN" ON UNIT  61 AT TIME STEP     5, STRESS PERIOD   7
 UBDSV3 SAVING "  STORAGE CHANGE" ON UNIT  61 AT TIME STEP     5, STRESS PERIOD   7


UNSATURATED ZONE PACKAGE VOLUMETRIC BUDGET FOR  TIME STEP     5 STRESS PERIOD    7
  ------------------------------------------------------------------------------



     CUMULATIVE VOLUMES      L**3       RATES FOR THIS TIME STEP      L**3/T
     ------------------                 ------------------------

           IN:                                      IN:
           ---                                      ---
        INFILTRATION =    47191613.4531          INFILTRATION =           2.9000

          OUT:                                     OUT:
          ----                                     ----
              UZF ET =    11519439.7206                UZF ET =           1.1723
        UZF RECHARGE =     7880960.6654          UZF RECHARGE =       0.0000E+00

            IN - OUT =    27791213.0671              IN - OUT =           1.7277

          STORAGE:                                 STORAGE:
          --------                                 --------
      STORAGE CHANGE =    27791211.6536        STORAGE CHANGE =           1.7277

 PERCENT DISCREPANCY IS DIFFERENCE BETWEEN IN-OUT MINUS CHANGE IN STORAGE
 DIVIDED BY THE AVERAGE OF IN AND OUT TIMES 100

 PERCENT DISCREPANCY =           0.00     PERCENT DISCREPANCY =           0.00






1
  VOLUMETRIC BUDGET FOR ENTIRE MODEL AT END OF TIME STEP    5, STRESS PERIOD   7
  ------------------------------------------------------------------------------

     CUMULATIVE VOLUMES      L**3       RATES FOR THIS TIME STEP      L**3/T
     ------------------                 ------------------------

           IN:                                      IN:
           ---                                      ---
             STORAGE =   362627328.0000               STORAGE =          15.4326
       CONSTANT HEAD =           0.0000         CONSTANT HEAD =           0.0000
               WELLS =           0.0000                 WELLS =           0.0000
     HEAD DEP BOUNDS =     4892334.5000       HEAD DEP BOUNDS =           0.3015
      STREAM LEAKAGE =   249665392.0000        STREAM LEAKAGE =          14.9213
        UZF RECHARGE =     7880964.5000          UZF RECHARGE =           0.0000
               GW ET =           0.0000                 GW ET =           0.0000
     SURFACE LEAKAGE =           0.0000       SURFACE LEAKAGE =           0.0000

            TOTAL IN =   625065984.0000              TOTAL IN =          30.6553

          OUT:                                     OUT:
          ----                                     ----
             STORAGE =    58834228.0000               STORAGE =           0.3330
       CONSTANT HEAD =           0.0000         CONSTANT HEAD =           0.0000
               WELLS =   430579456.0000                 WELLS =          20.0000
     HEAD DEP BOUNDS =     4661289.0000       HEAD DEP BOUNDS =           0.2828
      STREAM LEAKAGE =    43449000.0000        STREAM LEAKAGE =           3.8932
        UZF RECHARGE =           0.0000          UZF RECHARGE =           0.0000
               GW ET =    87555592.0000                 GW ET =           6.1472
     SURFACE LEAKAGE =           0.0000       SURFACE LEAKAGE =           0.0000

           TOTAL OUT =   625079552.0000             TOTAL OUT =          30.6561

            IN - OUT =      -13568.0000              IN - OUT =      -7.6103E-04

 PERCENT DISCREPANCY =          -0.00     PERCENT DISCREPANCY =          -0.00






         TIME SUMMARY AT END OF TIME STEP    5 IN STRESS PERIOD    7
                    SECONDS     MINUTES      HOURS       DAYS        YEARS
                    -----------------------------------------------------------
   TIME STEP LENGTH 1.21100E+05  2018.3      33.639      1.4016     3.83743E-03
 STRESS PERIOD TIME 5.04972E+05  8416.2      140.27      5.8446     1.60016E-02
         TOTAL TIME 1.62730E+07 2.71216E+05  4520.3      188.34     0.51566    
1
 
 SOLVING FOR HEAD 
                                                   Max.-Head-Change                         Max.-Flux-Residual
  Residual-Control   Outer-Iter.   Inner-Iter.     Column Row Layer    Maximum-Head-Change  Column Row Layer    Maximum-Flux-Residual          L2-NORM 
          0                 1           2             2   13     1      -0.1920288354E-01       2   13    1        -0.7400517682E+00      0.2219487270E+01
          0                 2           2             2   13     1       0.1818737622E-02       2   13    1         0.7071359620E-01      0.2197652749E+00
          0                 3           2             5   10     1      -0.1549938178E-03       2   13    1        -0.6046797537E-02      0.1957504694E-01
          0                 4           1             5   10     1       0.1230235103E-04       3   13    1         0.4587050453E-03      0.1551332932E-02

    ------------------------------------------------
       NWT REQUIRED            4 OUTER ITERATIONS 
       AND A TOTAL OF          7 INNER ITERATIONS.
    ------------------------------------------------

 NO OUTPUT CONTROL FOR STRESS PERIOD    7   TIME STEP    6
 
 SOLVING FOR HEAD 
                                                   Max.-Head-Change                         Max.-Flux-Residual
  Residual-Control   Outer-Iter.   Inner-Iter.     Column Row Layer    Maximum-Head-Change  Column Row Layer    Maximum-Flux-Residual          L2-NORM 
          0                 1           2             2   13     1      -0.1859360605E-01       2   13    1        -0.6585596481E+00      0.2118294785E+01
          0                 2           2             5   10     1       0.1798969777E-02       2   13    1         0.6263491353E-01      0.2098021553E+00
          0                 3           2             5   10     1      -0.1604368807E-03       5   10    1        -0.5399242034E-02      0.1869442461E-01
          0                 4           1             5   10     1       0.1273438478E-04       5   10    1         0.4324793713E-03      0.1481437109E-02

    ------------------------------------------------
       NWT REQUIRED            4 OUTER ITERATIONS 
       AND A TOTAL OF          7 INNER ITERATIONS.
    ------------------------------------------------

 NO OUTPUT CONTROL FOR STRESS PERIOD    7   TIME STEP    7
 
 SOLVING FOR HEAD 
                                                   Max.-Head-Change                         Max.-Flux-Residual
  Residual-Control   Outer-Iter.   Inner-Iter.     Column Row Layer    Maximum-Head-Change  Column Row Layer    Maximum-Flux-Residual          L2-NORM 
          0                 1           2             5   10     1      -0.1874366361E-01       2   13    1        -0.5799130366E+00      0.2023934226E+01
          0                 2           2             5   10     1       0.1857312968E-02       5   10    1         0.5645238957E-01      0.2005423878E+00
          0                 3           2             5   10     1      -0.1656400963E-03       5   10    1        -0.5080720975E-02      0.1787880166E-01
          0                 4           1             5   10     1       0.1314737944E-04       5   10    1         0.4069658030E-03      0.1418893791E-02

    ------------------------------------------------
       NWT REQUIRED            4 OUTER ITERATIONS 
       AND A TOTAL OF          7 INNER ITERATIONS.
    ------------------------------------------------

 NO OUTPUT CONTROL FOR STRESS PERIOD    7   TIME STEP    8
 
 SOLVING FOR HEAD 
                                                   Max.-Head-Change                         Max.-Flux-Residual
  Residual-Control   Outer-Iter.   Inner-Iter.     Column Row Layer    Maximum-Head-Change  Column Row Layer    Maximum-Flux-Residual          L2-NORM 
          0                 1           2             5   10     1      -0.1930829632E-01       5   10    1        -0.5298542913E+00      0.1937492962E+01
          0                 2           2             5   10     1       0.1913260521E-02       5   10    1         0.5298484894E-01      0.1920893169E+00
          0                 3           2             5   10     1      -0.1706296659E-03       5   10    1        -0.4768642689E-02      0.1713703637E-01
          0                 4           1             5   10     1       0.1354341728E-04       5   10    1         0.3819683320E-03      0.1360148773E-02

    ------------------------------------------------
       NWT REQUIRED            4 OUTER ITERATIONS 
       AND A TOTAL OF          7 INNER ITERATIONS.
    ------------------------------------------------

 NO OUTPUT CONTROL FOR STRESS PERIOD    7   TIME STEP    9
 
 SOLVING FOR HEAD 
                                                   Max.-Head-Change                         Max.-Flux-Residual
  Residual-Control   Outer-Iter.   Inner-Iter.     Column Row Layer    Maximum-Head-Change  Column Row Layer    Maximum-Flux-Residual          L2-NORM 
          0                 1           2             5   10     1      -0.1985462037E-01       5   10    1        -0.4961983573E+00      0.1859100574E+01
          0                 2           2             5   10     1       0.1967393592E-02       5   10    1         0.4961921565E-01      0.1844487606E+00
          0                 3           2             5   10     1      -0.1754574165E-03       5   10    1        -0.4465736054E-02      0.1646843357E-01
          0                 4           1             5   10     1       0.1392661083E-04       5   10    1         0.3577054999E-03      0.1308621125E-02

    ------------------------------------------------
       NWT REQUIRED            4 OUTER ITERATIONS 
       AND A TOTAL OF          7 INNER ITERATIONS.
    ------------------------------------------------

 OUTPUT CONTROL FOR STRESS PERIOD    7   TIME STEP   10
    PRINT BUDGET
    SAVE BUDGET

            WELLS   PERIOD    7   STEP  10
 WELL      1   LAYER   1   ROW     6   COL     4   RATE    -2.00000    
 WELL      2   LAYER   1   ROW     6   COL     5   RATE    -2.00000    
 WELL      3   LAYER   1   ROW     7   COL     4   RATE    -2.00000    
 WELL      4   LAYER   1   ROW     7   COL     5   RATE    -2.00000    
 WELL      5   LAYER   1   ROW     8   COL     4   RATE    -2.00000    
 WELL      6   LAYER   1   ROW     8   COL     5   RATE    -2.00000    
 WELL      7   LAYER   1   ROW     9   COL     4   RATE    -2.00000    
 WELL      8   LAYER   1   ROW     9   COL     5   RATE    -2.00000    
 WELL      9   LAYER   1   ROW    10   COL     4   RATE    -2.00000    
 WELL     10   LAYER   1   ROW    10   COL     5   RATE    -2.00000    

  HEAD DEP BOUNDS   PERIOD    7   STEP    10
 BOUNDARY      1   LAYER   1   ROW    13   COL     1   RATE   -0.280078    
 BOUNDARY      2   LAYER   1   ROW    14   COL     9   RATE    0.301549    



 STREAM LISTING     PERIOD      7   STEP       10

 LAYER ROW COL. STREAM  RCH.  FLOW INTO     FLOW TO   FLOW OUT OF   OVRLND.     DIRECT     STREAM       STREAM     STREAM     STREAM   STREAMBED  STREAMBED
                SEG.NO.  NO.  STRM. RCH.    AQUIFER    STRM. RCH.    RUNOFF     PRECIP       ET          HEAD       DEPTH      WIDTH   CONDCTNC.   GRADIENT

   1    1    1     1     1    2.5000E+01  2.4557E-01   2.4935E+01  1.806E-01  0.000E+00  0.000E+00  1.09423E+03  1.180E+00  1.306E+01  5.875E-02  1.393E+00
   1    2    2     1     2    2.4935E+01  3.8140E-01   2.4835E+01  2.809E-01  0.000E+00  0.000E+00  1.08924E+03  1.178E+00  1.304E+01  9.128E-02  1.393E+00
   1    3    3     1     3    2.4835E+01  3.2634E-01   2.4749E+01  2.408E-01  0.000E+00  0.000E+00  1.08360E+03  1.177E+00  1.302E+01  7.813E-02  1.392E+00
   1    3    4     1     4    2.4749E+01  3.0139E-01   2.4670E+01  2.227E-01  0.000E+00  0.000E+00  1.07858E+03  1.176E+00  1.300E+01  7.218E-02  1.392E+00
   1    4    5     2     1    1.4670E+01  0.0000E+00   1.4817E+01  1.472E-01  0.000E+00  0.000E+00  1.07281E+03  8.797E-01  1.200E+01  0.000E+00  1.293E+00
   1    5    6     2     2    1.4817E+01  0.0000E+00   1.4931E+01  1.132E-01  0.000E+00  0.000E+00  1.06739E+03  8.843E-01  1.200E+01  0.000E+00  1.295E+00
   1    6    6     2     3    1.4931E+01  0.0000E+00   1.5044E+01  1.132E-01  0.000E+00  0.000E+00  1.06268E+03  8.883E-01  1.200E+01  0.000E+00  1.296E+00
   1    7    6     2     4    1.5044E+01  0.0000E+00   1.5157E+01  1.132E-01  0.000E+00  0.000E+00  1.05797E+03  8.924E-01  1.200E+01  0.000E+00  1.297E+00
   1    8    6     2     5    1.5157E+01  0.0000E+00   1.5270E+01  1.132E-01  0.000E+00  0.000E+00  1.05325E+03  8.964E-01  1.200E+01  0.000E+00  1.299E+00
   1    3    5     3     1    1.0000E+01  2.8252E-01   1.0367E+01  6.500E-01  0.000E+00  0.000E+00  1.07555E+03  1.909E+00  9.636E+00  7.227E-02  1.955E+00
   1    3    6     3     2    1.0367E+01  2.4905E-01   1.0768E+01  6.500E-01  0.000E+00  0.000E+00  1.07264E+03  1.727E+00  8.909E+00  6.682E-02  1.864E+00
   1    3    7     3     3    1.0768E+01  1.9718E-01   1.1156E+01  5.850E-01  0.000E+00  0.000E+00  1.06987E+03  1.555E+00  8.218E+00  5.547E-02  1.777E+00
   1    4    8     3     4    1.1156E+01  2.2567E-01   1.1711E+01  7.800E-01  0.000E+00  0.000E+00  1.06682E+03  1.364E+00  7.455E+00  6.709E-02  1.682E+00
   1    5    8     3     5    1.1711E+01  1.5790E-01   1.2203E+01  6.500E-01  0.000E+00  0.000E+00  1.06362E+03  1.164E+00  6.655E+00  4.991E-02  1.582E+00
   1    6    8     3     6    1.2203E+01  5.5980E-02   1.2407E+01  2.600E-01  0.000E+00  0.000E+00  1.06158E+03  1.036E+00  6.145E+00  1.844E-02  1.518E+00
   1    5   10     4     1    1.0000E+01  0.0000E+00   1.0125E+01  1.250E-01  0.000E+00  0.000E+00  1.07837E+03  6.409E-01  1.000E+01  0.000E+00  1.214E+00
   1    5    9     4     2    1.0125E+01  0.0000E+00   1.0375E+01  2.500E-01  0.000E+00  0.000E+00  1.07156E+03  6.480E-01  1.000E+01  0.000E+00  1.216E+00
   1    6    8     4     3    1.0375E+01  0.0000E+00   1.0550E+01  1.750E-01  0.000E+00  0.000E+00  1.06384E+03  6.561E-01  1.000E+01  0.000E+00  1.219E+00
   1    6    8     5     1    2.2957E+01  3.8743E-01   2.2789E+01  2.200E-01  0.000E+00  0.000E+00  1.05890E+03  8.972E-01  2.485E+01  9.941E-02  1.299E+00
   1    7    7     5     2    2.2789E+01  4.8158E-01   2.2583E+01  2.750E-01  0.000E+00  0.000E+00  1.05439E+03  8.946E-01  2.473E+01  1.237E-01  1.298E+00
   1    8    7     5     3    2.2583E+01  3.3534E-01   2.2440E+01  1.925E-01  0.000E+00  0.000E+00  1.05014E+03  8.922E-01  2.462E+01  8.616E-02  1.297E+00
   1    8    6     5     4    2.2440E+01  2.3865E-01   2.2339E+01  1.375E-01  0.000E+00  0.000E+00  1.04714E+03  8.905E-01  2.454E+01  6.134E-02  1.297E+00
   1    9    6     6     1    3.7609E+01  0.0000E+00   3.8052E+01  4.432E-01  0.000E+00  0.000E+00  1.04429E+03  1.566E+00  1.200E+01  0.000E+00  1.522E+00
   1   10    7     6     2    3.8052E+01  0.0000E+00   3.8495E+01  4.432E-01  0.000E+00  0.000E+00  1.03976E+03  1.577E+00  1.200E+01  0.000E+00  1.526E+00
   1   11    7     6     3    3.8495E+01  0.0000E+00   3.8939E+01  4.432E-01  0.000E+00  0.000E+00  1.03522E+03  1.587E+00  1.200E+01  0.000E+00  1.529E+00
   1   12    7     6     4    3.8939E+01  0.0000E+00   3.9382E+01  4.432E-01  0.000E+00  0.000E+00  1.03069E+03  1.598E+00  1.200E+01  0.000E+00  1.533E+00
   1   13    7     6     5    3.9382E+01  0.0000E+00   3.9559E+01  1.773E-01  0.000E+00  0.000E+00  1.02752E+03  1.606E+00  1.200E+01  0.000E+00  8.672E-01
   1   14    9     7     1    1.5000E+02  1.5686E+00   1.4884E+02  4.113E-01  0.000E+00  0.000E+00  1.03987E+03  2.288E+00  5.530E+01  5.593E-01  9.348E-01
   1   13    8     7     2    1.4884E+02  2.5468E+00   1.4675E+02  4.524E-01  0.000E+00  0.000E+00  1.03478E+03  2.280E+00  5.526E+01  6.148E-01  1.381E+00
   1   13    7     7     3    1.4675E+02  2.6653E+00   1.4449E+02  4.113E-01  0.000E+00  0.000E+00  1.02969E+03  2.268E+00  5.521E+01  5.583E-01  1.591E+00
   1   13    6     8     1    1.8405E+02  2.1747E+00   1.8417E+02  2.290E+00  0.000E+00  0.000E+00  1.02492E+03  3.042E+00  4.411E+01  4.495E-01  1.613E+00
   1   13    5     8     2    1.8417E+02  1.5748E+00   1.8488E+02  2.290E+00  0.000E+00  0.000E+00  1.01867E+03  3.044E+00  4.414E+01  4.498E-01  1.167E+00
   1   13    4     8     3    1.8488E+02  5.9932E-01   1.8658E+02  2.290E+00  0.000E+00  0.000E+00  1.01243E+03  3.052E+00  4.425E+01  4.509E-01  4.430E-01
   1   13    3     8     4    1.8658E+02 -7.0595E-01   1.8957E+02  2.290E+00  0.000E+00  0.000E+00  1.00619E+03  3.066E+00  4.446E+01  4.531E+00 -5.194E-02
   1   13    2     8     5    1.8957E+02 -1.2554E+00   1.9312E+02  2.290E+00  0.000E+00  0.000E+00  9.99961E+02  3.086E+00  4.475E+01  4.560E+00 -9.177E-02
   1   13    1     8     6    1.9312E+02 -1.0770E+00   1.9557E+02  1.374E+00  0.000E+00  0.000E+00  9.94979E+02  3.104E+00  4.501E+01  2.752E+00 -1.304E-01



 UBDSV3 SAVING "     NETRECHARGE" ON UNIT 100 AT TIME STEP    10, STRESS PERIOD   7
 UBDSV3 SAVING "    NETDISCHARGE" ON UNIT 101 AT TIME STEP    10, STRESS PERIOD   7
 UBDSV3 SAVING "           GW ET" ON UNIT  61 AT TIME STEP    10, STRESS PERIOD   7
 UBDSV3 SAVING "    UZF RECHARGE" ON UNIT  61 AT TIME STEP    10, STRESS PERIOD   7
 UBDSV3 SAVING " SURFACE LEAKAGE" ON UNIT  61 AT TIME STEP    10, STRESS PERIOD   7
 UBDSV3 SAVING "       HORT+DUNN" ON UNIT  61 AT TIME STEP    10, STRESS PERIOD   7
 UBDSV3 SAVING "  STORAGE CHANGE" ON UNIT  61 AT TIME STEP    10, STRESS PERIOD   7


UNSATURATED ZONE PACKAGE VOLUMETRIC BUDGET FOR  TIME STEP    10 STRESS PERIOD    7
  ------------------------------------------------------------------------------



     CUMULATIVE VOLUMES      L**3       RATES FOR THIS TIME STEP      L**3/T
     ------------------                 ------------------------

           IN:                                      IN:
           ---                                      ---
        INFILTRATION =    49550072.7207          INFILTRATION =           2.9000

          OUT:                                     OUT:
          ----                                     ----
              UZF ET =    12471044.0470                UZF ET =           1.1603
        UZF RECHARGE =     7880960.6654          UZF RECHARGE =       0.0000E+00

            IN - OUT =    29198068.0083              IN - OUT =           1.7397

          STORAGE:                                 STORAGE:
          --------                                 --------
      STORAGE CHANGE =    29198066.5737        STORAGE CHANGE =           1.7397

 PERCENT DISCREPANCY IS DIFFERENCE BETWEEN IN-OUT MINUS CHANGE IN STORAGE
 DIVIDED BY THE AVERAGE OF IN AND OUT TIMES 100

 PERCENT DISCREPANCY =           0.00     PERCENT DISCREPANCY =           0.00






1
  VOLUMETRIC BUDGET FOR ENTIRE MODEL AT END OF TIME STEP   10, STRESS PERIOD   7
  ------------------------------------------------------------------------------

     CUMULATIVE VOLUMES      L**3       RATES FOR THIS TIME STEP      L**3/T
     ------------------                 ------------------------

           IN:                                      IN:
           ---                                      ---
             STORAGE =   374474272.0000               STORAGE =          14.1690
       CONSTANT HEAD =           0.0000         CONSTANT HEAD =           0.0000
               WELLS =           0.0000                 WELLS =           0.0000
     HEAD DEP BOUNDS =     5137547.5000       HEAD DEP BOUNDS =           0.3015
      STREAM LEAKAGE =   261836992.0000        STREAM LEAKAGE =          14.9954
        UZF RECHARGE =     7880964.5000          UZF RECHARGE =           0.0000
               GW ET =           0.0000                 GW ET =           0.0000
     SURFACE LEAKAGE =           0.0000       SURFACE LEAKAGE =           0.0000

            TOTAL IN =   649329792.0000              TOTAL IN =          29.4659

          OUT:                                     OUT:
          ----                                     ----
             STORAGE =    58893356.0000               STORAGE =           0.0000
       CONSTANT HEAD =           0.0000         CONSTANT HEAD =           0.0000
               WELLS =   446844672.0000                 WELLS =          20.0000
     HEAD DEP BOUNDS =     4889864.5000       HEAD DEP BOUNDS =           0.2801
      STREAM LEAKAGE =    46161008.0000        STREAM LEAKAGE =           3.0383
        UZF RECHARGE =           0.0000          UZF RECHARGE =           0.0000
               GW ET =    92555008.0000                 GW ET =           6.1482
     SURFACE LEAKAGE =           0.0000       SURFACE LEAKAGE =           0.0000

           TOTAL OUT =   649343872.0000             TOTAL OUT =          29.4666

            IN - OUT =      -14080.0000              IN - OUT =      -7.1144E-04

 PERCENT DISCREPANCY =          -0.00     PERCENT DISCREPANCY =          -0.00






         TIME SUMMARY AT END OF TIME STEP   10 IN STRESS PERIOD    7
                    SECONDS     MINUTES      HOURS       DAYS        YEARS
                    -----------------------------------------------------------
   TIME STEP LENGTH 1.95033E+05  3250.6      54.176      2.2573     6.18023E-03
 STRESS PERIOD TIME 1.31823E+06  21971.      366.18      15.257     4.17723E-02
         TOTAL TIME 1.70862E+07 2.84770E+05  4746.2      197.76     0.54143    
1
 
 SOLVING FOR HEAD 
                                                   Max.-Head-Change                         Max.-Flux-Residual
  Residual-Control   Outer-Iter.   Inner-Iter.     Column Row Layer    Maximum-Head-Change  Column Row Layer    Maximum-Flux-Residual          L2-NORM 
          0                 1           2             5   10     1      -0.2039169461E-01       5   10    1        -0.4638488794E+00      0.1789337812E+01
          0                 2           2             5   10     1       0.2020609854E-02       5   10    1         0.4638423144E-01      0.1776716756E+00
          0                 3           2             5   10     1      -0.1802034055E-03       5   10    1        -0.4174587801E-02      0.1587784526E-01
          0                 4           1             5   10     1       0.1430331426E-04       5   10    1         0.3343845149E-03      0.1262855567E-02

    ------------------------------------------------
       NWT REQUIRED            4 OUTER ITERATIONS 
       AND A TOTAL OF          7 INNER ITERATIONS.
    ------------------------------------------------

 NO OUTPUT CONTROL FOR STRESS PERIOD    7   TIME STEP   11
 
 SOLVING FOR HEAD 
                                                   Max.-Head-Change                         Max.-Flux-Residual
  Residual-Control   Outer-Iter.   Inner-Iter.     Column Row Layer    Maximum-Head-Change  Column Row Layer    Maximum-Flux-Residual          L2-NORM 
          0                 1           2             5   10     1      -0.2093295609E-01       5   10    1        -0.4330908378E+00      0.1727926874E+01
          0                 2           2             5   10     1       0.2074240837E-02       5   10    1         0.4330839585E-01      0.1717249319E+00
          0                 3           2             5   10     1      -0.1849863801E-03       5   10    1        -0.3897762868E-02      0.1536135735E-01
          0                 4           1             5   10     1       0.1468295478E-04       5   10    1         0.3122108349E-03      0.1223248650E-02

    ------------------------------------------------
       NWT REQUIRED            4 OUTER ITERATIONS 
       AND A TOTAL OF          7 INNER ITERATIONS.
    ------------------------------------------------

 NO OUTPUT CONTROL FOR STRESS PERIOD    7   TIME STEP   12
 
 SOLVING FOR HEAD 
                                                   Max.-Head-Change                         Max.-Flux-Residual
  Residual-Control   Outer-Iter.   Inner-Iter.     Column Row Layer    Maximum-Head-Change  Column Row Layer    Maximum-Flux-Residual          L2-NORM 
          0                 1           2             5   10     1      -0.2149533863E-01       5   10    1        -0.4041692614E+00      0.1675371794E+01
          0                 2           2             5   10     1       0.2129964590E-02       5   10    1         0.4041621329E-01      0.1666470207E+00
          0                 3           2             5   10     1      -0.1899559903E-03       5   10    1        -0.3637466649E-02      0.1492066939E-01
          0                 4           1             5   10     1       0.1507740836E-04       5   10    1         0.2913611013E-03      0.1189290505E-02

    ------------------------------------------------
       NWT REQUIRED            4 OUTER ITERATIONS 
       AND A TOTAL OF          7 INNER ITERATIONS.
    ------------------------------------------------

 NO OUTPUT CONTROL FOR STRESS PERIOD    7   TIME STEP   13
 
 SOLVING FOR HEAD 
                                                   Max.-Head-Change                         Max.-Flux-Residual
  Residual-Control   Outer-Iter.   Inner-Iter.     Column Row Layer    Maximum-Head-Change  Column Row Layer    Maximum-Flux-Residual          L2-NORM 
          0                 1           2             5   10     1      -0.2209985499E-01       5   10    1        -0.3772967930E+00      0.1630636731E+01
          0                 2           2             5   10     1       0.2189863359E-02       5   10    1         0.3772894947E-01      0.1623331551E+00
          0                 3           2             5   10     1      -0.1952979333E-03       5   10    1        -0.3395613042E-02      0.1454702081E-01
          0                 4           1             5   10     1       0.1550140900E-04       5   10    1         0.2719886190E-03      0.1160279023E-02

    ------------------------------------------------
       NWT REQUIRED            4 OUTER ITERATIONS 
       AND A TOTAL OF          7 INNER ITERATIONS.
    ------------------------------------------------

 NO OUTPUT CONTROL FOR STRESS PERIOD    7   TIME STEP   14
 
 SOLVING FOR HEAD 
                                                   Max.-Head-Change                         Max.-Flux-Residual
  Residual-Control   Outer-Iter.   Inner-Iter.     Column Row Layer    Maximum-Head-Change  Column Row Layer    Maximum-Flux-Residual          L2-NORM 
          0                 1           2             5   10     1      -0.2277142451E-01       5   10    1        -0.3526432397E+00      0.1593027372E+01
          0                 2           2             5   10     1       0.2256406522E-02       5   10    1         0.3526358634E-01      0.1587124304E+00
          0                 3           2             5   10     1      -0.2012324392E-03       5   10    1        -0.3173730403E-02      0.1423469128E-01
          0                 4           1             5   10     1       0.1597245155E-04       5   10    1         0.2542158174E-03      0.1136673667E-02

    ------------------------------------------------
       NWT REQUIRED            4 OUTER ITERATIONS 
       AND A TOTAL OF          7 INNER ITERATIONS.
    ------------------------------------------------

 OUTPUT CONTROL FOR STRESS PERIOD    7   TIME STEP   15
    PRINT BUDGET
    PRINT HEAD FOR ALL LAYERS
    SAVE HEAD FOR ALL LAYERS
    SAVE BUDGET

            WELLS   PERIOD    7   STEP  15
 WELL      1   LAYER   1   ROW     6   COL     4   RATE    -2.00000    
 WELL      2   LAYER   1   ROW     6   COL     5   RATE    -2.00000    
 WELL      3   LAYER   1   ROW     7   COL     4   RATE    -2.00000    
 WELL      4   LAYER   1   ROW     7   COL     5   RATE    -2.00000    
 WELL      5   LAYER   1   ROW     8   COL     4   RATE    -2.00000    
 WELL      6   LAYER   1   ROW     8   COL     5   RATE    -2.00000    
 WELL      7   LAYER   1   ROW     9   COL     4   RATE    -2.00000    
 WELL      8   LAYER   1   ROW     9   COL     5   RATE    -2.00000    
 WELL      9   LAYER   1   ROW    10   COL     4   RATE    -2.00000    
 WELL     10   LAYER   1   ROW    10   COL     5   RATE    -2.00000    

  HEAD DEP BOUNDS   PERIOD    7   STEP    15
 BOUNDARY      1   LAYER   1   ROW    13   COL     1   RATE   -0.277599    
 BOUNDARY      2   LAYER   1   ROW    14   COL     9   RATE    0.301670    



 STREAM LISTING     PERIOD      7   STEP       15

 LAYER ROW COL. STREAM  RCH.  FLOW INTO     FLOW TO   FLOW OUT OF   OVRLND.     DIRECT     STREAM       STREAM     STREAM     STREAM   STREAMBED  STREAMBED
                SEG.NO.  NO.  STRM. RCH.    AQUIFER    STRM. RCH.    RUNOFF     PRECIP       ET          HEAD       DEPTH      WIDTH   CONDCTNC.   GRADIENT

   1    1    1     1     1    2.5000E+01  2.4557E-01   2.4935E+01  1.806E-01  0.000E+00  0.000E+00  1.09423E+03  1.180E+00  1.306E+01  5.875E-02  1.393E+00
   1    2    2     1     2    2.4935E+01  3.8140E-01   2.4835E+01  2.809E-01  0.000E+00  0.000E+00  1.08924E+03  1.178E+00  1.304E+01  9.128E-02  1.393E+00
   1    3    3     1     3    2.4835E+01  3.2634E-01   2.4749E+01  2.408E-01  0.000E+00  0.000E+00  1.08360E+03  1.177E+00  1.302E+01  7.813E-02  1.392E+00
   1    3    4     1     4    2.4749E+01  3.0139E-01   2.4670E+01  2.227E-01  0.000E+00  0.000E+00  1.07858E+03  1.176E+00  1.300E+01  7.218E-02  1.392E+00
   1    4    5     2     1    1.4670E+01  0.0000E+00   1.4817E+01  1.472E-01  0.000E+00  0.000E+00  1.07281E+03  8.797E-01  1.200E+01  0.000E+00  1.293E+00
   1    5    6     2     2    1.4817E+01  0.0000E+00   1.4931E+01  1.132E-01  0.000E+00  0.000E+00  1.06739E+03  8.843E-01  1.200E+01  0.000E+00  1.295E+00
   1    6    6     2     3    1.4931E+01  0.0000E+00   1.5044E+01  1.132E-01  0.000E+00  0.000E+00  1.06268E+03  8.883E-01  1.200E+01  0.000E+00  1.296E+00
   1    7    6     2     4    1.5044E+01  0.0000E+00   1.5157E+01  1.132E-01  0.000E+00  0.000E+00  1.05797E+03  8.924E-01  1.200E+01  0.000E+00  1.297E+00
   1    8    6     2     5    1.5157E+01  0.0000E+00   1.5270E+01  1.132E-01  0.000E+00  0.000E+00  1.05325E+03  8.964E-01  1.200E+01  0.000E+00  1.299E+00
   1    3    5     3     1    1.0000E+01  2.8252E-01   1.0367E+01  6.500E-01  0.000E+00  0.000E+00  1.07555E+03  1.909E+00  9.636E+00  7.227E-02  1.955E+00
   1    3    6     3     2    1.0367E+01  2.4905E-01   1.0768E+01  6.500E-01  0.000E+00  0.000E+00  1.07264E+03  1.727E+00  8.909E+00  6.682E-02  1.864E+00
   1    3    7     3     3    1.0768E+01  1.9718E-01   1.1156E+01  5.850E-01  0.000E+00  0.000E+00  1.06987E+03  1.555E+00  8.218E+00  5.547E-02  1.777E+00
   1    4    8     3     4    1.1156E+01  2.2567E-01   1.1711E+01  7.800E-01  0.000E+00  0.000E+00  1.06682E+03  1.364E+00  7.455E+00  6.709E-02  1.682E+00
   1    5    8     3     5    1.1711E+01  1.5790E-01   1.2203E+01  6.500E-01  0.000E+00  0.000E+00  1.06362E+03  1.164E+00  6.655E+00  4.991E-02  1.582E+00
   1    6    8     3     6    1.2203E+01  5.5980E-02   1.2407E+01  2.600E-01  0.000E+00  0.000E+00  1.06158E+03  1.036E+00  6.145E+00  1.844E-02  1.518E+00
   1    5   10     4     1    1.0000E+01  0.0000E+00   1.0125E+01  1.250E-01  0.000E+00  0.000E+00  1.07837E+03  6.409E-01  1.000E+01  0.000E+00  1.214E+00
   1    5    9     4     2    1.0125E+01  0.0000E+00   1.0375E+01  2.500E-01  0.000E+00  0.000E+00  1.07156E+03  6.480E-01  1.000E+01  0.000E+00  1.216E+00
   1    6    8     4     3    1.0375E+01  0.0000E+00   1.0550E+01  1.750E-01  0.000E+00  0.000E+00  1.06384E+03  6.561E-01  1.000E+01  0.000E+00  1.219E+00
   1    6    8     5     1    2.2957E+01  3.8743E-01   2.2789E+01  2.200E-01  0.000E+00  0.000E+00  1.05890E+03  8.972E-01  2.485E+01  9.941E-02  1.299E+00
   1    7    7     5     2    2.2789E+01  4.8158E-01   2.2583E+01  2.750E-01  0.000E+00  0.000E+00  1.05439E+03  8.946E-01  2.473E+01  1.237E-01  1.298E+00
   1    8    7     5     3    2.2583E+01  3.3534E-01   2.2440E+01  1.925E-01  0.000E+00  0.000E+00  1.05014E+03  8.922E-01  2.462E+01  8.616E-02  1.297E+00
   1    8    6     5     4    2.2440E+01  2.3865E-01   2.2339E+01  1.375E-01  0.000E+00  0.000E+00  1.04714E+03  8.905E-01  2.454E+01  6.134E-02  1.297E+00
   1    9    6     6     1    3.7609E+01  0.0000E+00   3.8052E+01  4.432E-01  0.000E+00  0.000E+00  1.04429E+03  1.566E+00  1.200E+01  0.000E+00  1.522E+00
   1   10    7     6     2    3.8052E+01  0.0000E+00   3.8495E+01  4.432E-01  0.000E+00  0.000E+00  1.03976E+03  1.577E+00  1.200E+01  0.000E+00  1.526E+00
   1   11    7     6     3    3.8495E+01  0.0000E+00   3.8939E+01  4.432E-01  0.000E+00  0.000E+00  1.03522E+03  1.587E+00  1.200E+01  0.000E+00  1.529E+00
   1   12    7     6     4    3.8939E+01  0.0000E+00   3.9382E+01  4.432E-01  0.000E+00  0.000E+00  1.03069E+03  1.598E+00  1.200E+01  0.000E+00  1.533E+00
   1   13    7     6     5    3.9382E+01  0.0000E+00   3.9559E+01  1.773E-01  0.000E+00  0.000E+00  1.02752E+03  1.606E+00  1.200E+01  0.000E+00  8.763E-01
   1   14    9     7     1    1.5000E+02  1.5703E+00   1.4884E+02  4.113E-01  0.000E+00  0.000E+00  1.03987E+03  2.288E+00  5.530E+01  5.593E-01  9.358E-01
   1   13    8     7     2    1.4884E+02  2.5530E+00   1.4674E+02  4.524E-01  0.000E+00  0.000E+00  1.03478E+03  2.280E+00  5.526E+01  6.148E-01  1.384E+00
   1   13    7     7     3    1.4674E+02  2.6806E+00   1.4447E+02  4.113E-01  0.000E+00  0.000E+00  1.02969E+03  2.268E+00  5.521E+01  5.583E-01  1.600E+00
   1   13    6     8     1    1.8403E+02  2.2002E+00   1.8412E+02  2.290E+00  0.000E+00  0.000E+00  1.02492E+03  3.042E+00  4.410E+01  4.494E-01  1.632E+00
   1   13    5     8     2    1.8412E+02  1.6031E+00   1.8481E+02  2.290E+00  0.000E+00  0.000E+00  1.01867E+03  3.044E+00  4.414E+01  4.498E-01  1.188E+00
   1   13    4     8     3    1.8481E+02  6.2729E-01   1.8647E+02  2.290E+00  0.000E+00  0.000E+00  1.01243E+03  3.051E+00  4.424E+01  4.509E-01  4.638E-01
   1   13    3     8     4    1.8647E+02 -4.9318E-01   1.8925E+02  2.290E+00  0.000E+00  0.000E+00  1.00619E+03  3.065E+00  4.444E+01  4.529E+00 -3.630E-02
   1   13    2     8     5    1.8925E+02 -1.0205E+00   1.9256E+02  2.290E+00  0.000E+00  0.000E+00  9.99958E+02  3.083E+00  4.471E+01  4.556E+00 -7.466E-02
   1   13    1     8     6    1.9256E+02 -9.0683E-01   1.9485E+02  1.374E+00  0.000E+00  0.000E+00  9.94975E+02  3.100E+00  4.495E+01  2.749E+00 -1.100E-01



 UBDSV3 SAVING "     NETRECHARGE" ON UNIT 100 AT TIME STEP    15, STRESS PERIOD   7
 UBDSV3 SAVING "    NETDISCHARGE" ON UNIT 101 AT TIME STEP    15, STRESS PERIOD   7
 UBDSV3 SAVING "           GW ET" ON UNIT  61 AT TIME STEP    15, STRESS PERIOD   7
 UBDSV3 SAVING "    UZF RECHARGE" ON UNIT  61 AT TIME STEP    15, STRESS PERIOD   7
 UBDSV3 SAVING " SURFACE LEAKAGE" ON UNIT  61 AT TIME STEP    15, STRESS PERIOD   7
 UBDSV3 SAVING "       HORT+DUNN" ON UNIT  61 AT TIME STEP    15, STRESS PERIOD   7
 UBDSV3 SAVING "  STORAGE CHANGE" ON UNIT  61 AT TIME STEP    15, STRESS PERIOD   7


UNSATURATED ZONE PACKAGE VOLUMETRIC BUDGET FOR  TIME STEP    15 STRESS PERIOD    7
  ------------------------------------------------------------------------------



     CUMULATIVE VOLUMES      L**3       RATES FOR THIS TIME STEP      L**3/T
     ------------------                 ------------------------

           IN:                                      IN:
           ---                                      ---
        INFILTRATION =    53348395.0723          INFILTRATION =           2.9000

          OUT:                                     OUT:
          ----                                     ----
              UZF ET =    14002465.4684                UZF ET =           1.1749
        UZF RECHARGE =     7880960.6654          UZF RECHARGE =       0.0000E+00

            IN - OUT =    31464968.9385              IN - OUT =           1.7251

          STORAGE:                                 STORAGE:
          --------                                 --------
      STORAGE CHANGE =    31464967.5501        STORAGE CHANGE =           1.7251

 PERCENT DISCREPANCY IS DIFFERENCE BETWEEN IN-OUT MINUS CHANGE IN STORAGE
 DIVIDED BY THE AVERAGE OF IN AND OUT TIMES 100

 PERCENT DISCREPANCY =           0.00     PERCENT DISCREPANCY =           0.00






1
              HEAD IN LAYER   1 AT END OF TIME STEP    15 IN STRESS PERIOD    7
  -----------------------------------------------------------------------------

           1       2       3       4       5       6       7       8       9      10
 ...................................................................................
   1  1029.22 1025.66 6999.00 6999.00 6999.00 6999.00 6999.00 6999.00 6999.00 6999.00
   2  1026.01 1021.12 1019.10 6999.00 6999.00 1017.52 1017.79 1017.94 6999.00 6999.00
   3  6999.00 1018.09 1016.83 1015.76 1015.67 1016.21 1016.96 1017.16 6999.00 6999.00
   4  1016.06 1016.08 1015.09 1013.98 1013.66 1013.90 1014.92 1016.41 1016.13 6999.00
   5  1015.26 1014.41 1013.07 1012.04 1012.23 1012.97 1013.83 1014.72 1015.16 1015.46
   6  1014.47 1013.22 1011.22 1009.72 1010.24 1012.01 1013.41 1014.51 1015.09 1015.79
   7  1013.94 1012.35 1010.04 1008.42 1009.21 1011.39 1013.19 1014.13 1015.31 6999.00
   8  6999.00 1011.74 1009.54 1007.92 1008.87 1011.19 1012.98 1014.46 1016.23 6999.00
   9  6999.00 1011.25 1009.55 1008.25 1009.24 1011.49 1013.24 1015.28 1017.81 6999.00
  10  6999.00 1010.72 1009.92 1009.30 1010.35 1012.60 1014.29 1016.68 1019.51 1020.40
  11  6999.00 1009.46 1010.09 1011.01 1012.42 1014.52 1016.51 1019.48 1022.75 6999.00
  12  1000.84 1005.63 1008.94 1011.35 1013.88 1016.90 1019.66 1024.52 1028.41 6999.00
  13   995.31 1000.18 1006.30 1011.03 1015.10 1020.02 1024.89 1030.63 1033.68 6999.00
  14  6999.00 1005.56 1008.28 1012.18 1016.19 1020.59 1025.84 1032.09 1037.06 6999.00
  15  6999.00 6999.00 1011.74 1014.10 1017.11 1019.85 6999.00 6999.00 6999.00 6999.00

 HEAD WILL BE SAVED ON UNIT   58 AT END OF TIME STEP   15, STRESS PERIOD    7
1
  VOLUMETRIC BUDGET FOR ENTIRE MODEL AT END OF TIME STEP   15, STRESS PERIOD   7
  ------------------------------------------------------------------------------

     CUMULATIVE VOLUMES      L**3       RATES FOR THIS TIME STEP      L**3/T
     ------------------                 ------------------------

           IN:                                      IN:
           ---                                      ---
             STORAGE =   392400256.0000               STORAGE =          13.4423
       CONSTANT HEAD =           0.0000         CONSTANT HEAD =           0.0000
               WELLS =           0.0000                 WELLS =           0.0000
     HEAD DEP BOUNDS =     5532602.0000       HEAD DEP BOUNDS =           0.3017
      STREAM LEAKAGE =   281561984.0000        STREAM LEAKAGE =          15.1005
        UZF RECHARGE =     7880964.5000          UZF RECHARGE =           0.0000
               GW ET =           0.0000                 GW ET =           0.0000
     SURFACE LEAKAGE =           0.0000       SURFACE LEAKAGE =           0.0000

            TOTAL IN =   687375808.0000              TOTAL IN =          28.8444

          OUT:                                     OUT:
          ----                                     ----
             STORAGE =    58893356.0000               STORAGE =           0.0000
       CONSTANT HEAD =           0.0000         CONSTANT HEAD =           0.0000
               WELLS =   473040000.0000                 WELLS =          20.0000
     HEAD DEP BOUNDS =     5254573.5000       HEAD DEP BOUNDS =           0.2776
      STREAM LEAKAGE =    49596140.0000        STREAM LEAKAGE =           2.4205
        UZF RECHARGE =           0.0000          UZF RECHARGE =           0.0000
               GW ET =   100606712.0000                 GW ET =           6.1469
     SURFACE LEAKAGE =           0.0000       SURFACE LEAKAGE =           0.0000

           TOTAL OUT =   687390784.0000             TOTAL OUT =          28.8451

            IN - OUT =      -14976.0000              IN - OUT =      -6.7520E-04

 PERCENT DISCREPANCY =          -0.00     PERCENT DISCREPANCY =          -0.00






         TIME SUMMARY AT END OF TIME STEP   15 IN STRESS PERIOD    7
                    SECONDS     MINUTES      HOURS       DAYS        YEARS
                    -----------------------------------------------------------
   TIME STEP LENGTH 3.14103E+05  5235.0      87.251      3.6354     9.95332E-03
 STRESS PERIOD TIME 2.62800E+06  43800.      730.00      30.417     8.32763E-02
         TOTAL TIME 1.83960E+07 3.06600E+05  5110.0      212.92     0.58293    
1
1
                            STRESS PERIOD NO.    8, LENGTH =   2628000.    
                            -----------------------------------------------

                              NUMBER OF TIME STEPS =    15

                               MULTIPLIER FOR DELT =     1.100

                            INITIAL TIME STEP SIZE =   82713.07    

      0 WELLS

 REUSING NON-PARAMETER GHB CELLS FROM LAST STRESS PERIOD

      2 GHB CELLS

 REUSING STREAM SEGMENT DATA FROM LAST STRESS PERIOD



            AREAL INFILTRATION RATE
 READING ON UNIT   19 WITH FORMAT: (10F4.0)            

            1           2           3           4           5           6           7           8           9          10
 ........................................................................................................................
   1   5.0000E-09  1.0000E-08   0.000       0.000       0.000       0.000       0.000       0.000       0.000       0.000    
   2   1.0000E-08  5.0000E-09  1.0000E-08   0.000       0.000      4.0000E-08  4.0000E-08  2.5000E-08   0.000       0.000    
   3    0.000      2.5000E-08  5.0000E-09  5.0000E-09  4.0000E-08  4.0000E-08  2.5000E-08  2.5000E-08   0.000       0.000    
   4   4.0000E-08  2.5000E-08  5.0000E-09  5.0000E-09  5.0000E-09  5.0000E-09  5.0000E-09  5.0000E-09  1.0000E-08   0.000    
   5   4.0000E-08  2.5000E-08  5.0000E-09  5.0000E-09  5.0000E-09  5.0000E-09  5.0000E-09  5.0000E-09  5.0000E-09  5.0000E-09
   6   4.0000E-08  2.5000E-08  2.5000E-08  1.0000E-08  1.0000E-08  5.0000E-09  5.0000E-09  5.0000E-09  5.0000E-09  2.5000E-08
   7   4.0000E-08  2.5000E-08  2.5000E-08  1.0000E-08  1.0000E-08  5.0000E-09  5.0000E-09  1.0000E-08  1.0000E-08   0.000    
   8    0.000      2.5000E-08  2.5000E-08  1.0000E-08  1.0000E-08  5.0000E-09  5.0000E-09  1.0000E-08  2.5000E-08   0.000    
   9    0.000      2.5000E-08  2.5000E-08  1.0000E-08  1.0000E-08  5.0000E-09  5.0000E-09  1.0000E-08  2.5000E-08   0.000    
  10    0.000      2.5000E-08  2.5000E-08  1.0000E-08  1.0000E-08  5.0000E-09  5.0000E-09  1.0000E-08  2.5000E-08  4.0000E-08
  11    0.000      5.0000E-09  5.0000E-09  5.0000E-09  5.0000E-09  5.0000E-09  5.0000E-09  1.0000E-08  2.5000E-08   0.000    
  12   5.0000E-09  5.0000E-09  5.0000E-09  5.0000E-09  5.0000E-09  5.0000E-09  5.0000E-09  5.0000E-09  1.0000E-08   0.000    
  13   5.0000E-09  5.0000E-09  1.0000E-08  1.0000E-08  1.0000E-08  1.0000E-08  1.0000E-08  5.0000E-09  5.0000E-09   0.000    
  14    0.000      1.0000E-08  2.5000E-08  2.5000E-08  2.5000E-08  2.5000E-08  2.5000E-08  1.0000E-08  5.0000E-09   0.000    
  15    0.000       0.000      4.0000E-08  4.0000E-08  4.0000E-08  4.0000E-08   0.000       0.000       0.000       0.000    

USING ET RATE FROM PREVIOUS STRESS PERIOD. CURRENT PERIOD IS:       8

 USING ET EXTINCTION DEPTH FROM PREVIOUS STRESS PERIOD. CURRENT PERIOD IS:       8

 USING EXTINCTION WATER CONTENT FROM PREVIOUS STRESS PERIOD. CURRENT PERIOD IS:       8
 
 SOLVING FOR HEAD 
                                                   Max.-Head-Change                         Max.-Flux-Residual
  Residual-Control   Outer-Iter.   Inner-Iter.     Column Row Layer    Maximum-Head-Change  Column Row Layer    Maximum-Flux-Residual          L2-NORM 
          0                 1           2             4    8     1       0.3263147395E-01       4    8    1         0.1805578755E+01      0.5585012916E+01
          0                 2           2             4    8     1      -0.3233488579E-02       4    8    1        -0.1805582976E+00      0.5584721842E+00
          0                 3           2             4    8     1       0.2883707954E-03       4    8    1         0.1625024465E-01      0.5025967465E-01
          0                 4           1             4    8     1      -0.2288890821E-04       4    8    1        -0.1301644983E-02      0.4025534959E-02

    ------------------------------------------------
       NWT REQUIRED            4 OUTER ITERATIONS 
       AND A TOTAL OF          7 INNER ITERATIONS.
    ------------------------------------------------

 NO OUTPUT CONTROL FOR STRESS PERIOD    8   TIME STEP    1
 
 SOLVING FOR HEAD 
                                                   Max.-Head-Change                         Max.-Flux-Residual
  Residual-Control   Outer-Iter.   Inner-Iter.     Column Row Layer    Maximum-Head-Change  Column Row Layer    Maximum-Flux-Residual          L2-NORM 
          0                 1           2             4    8     1       0.3569151506E-01       4    8    1         0.1796473245E+01      0.5500184858E+01
          0                 2           2             4    8     1      -0.3536712661E-02       4    8    1        -0.1796478228E+00      0.5499924968E+00
          0                 3           2             4    8     1       0.3154130828E-03       4    8    1         0.1616830115E-01      0.4949676485E-01
          0                 4           1             4    8     1      -0.2503534028E-04       4    8    1        -0.1295081280E-02      0.3964466595E-02

    ------------------------------------------------
       NWT REQUIRED            4 OUTER ITERATIONS 
       AND A TOTAL OF          7 INNER ITERATIONS.
    ------------------------------------------------

 NO OUTPUT CONTROL FOR STRESS PERIOD    8   TIME STEP    2
 
 SOLVING FOR HEAD 
                                                   Max.-Head-Change                         Max.-Flux-Residual
  Residual-Control   Outer-Iter.   Inner-Iter.     Column Row Layer    Maximum-Head-Change  Column Row Layer    Maximum-Flux-Residual          L2-NORM 
          0                 1           2             4    8     1       0.3901111188E-01       4    8    1         0.1786305135E+01      0.5411234289E+01
          0                 2           2             4    8     1      -0.3865656990E-02       4    8    1        -0.1786311071E+00      0.5411010931E+00
          0                 3           2             4    8     1       0.3447491628E-03       4    8    1         0.1607679581E-01      0.4869689196E-01
          0                 4           1             4    8     1      -0.2736383831E-04       4    8    1        -0.1287751705E-02      0.3900457053E-02

    ------------------------------------------------
       NWT REQUIRED            4 OUTER ITERATIONS 
       AND A TOTAL OF          7 INNER ITERATIONS.
    ------------------------------------------------

 NO OUTPUT CONTROL FOR STRESS PERIOD    8   TIME STEP    3
 
 SOLVING FOR HEAD 
                                                   Max.-Head-Change                         Max.-Flux-Residual
  Residual-Control   Outer-Iter.   Inner-Iter.     Column Row Layer    Maximum-Head-Change  Column Row Layer    Maximum-Flux-Residual          L2-NORM 
          0                 1           2             4    8     1       0.4260573185E-01       4    8    1         0.1774954409E+01      0.5318221755E+01
          0                 2           2             4    8     1      -0.4221854488E-02       4    8    1        -0.1774961540E+00      0.5318034852E+00
          0                 3           2             4    8     1       0.3765157415E-03       4    8    1         0.1597464883E-01      0.4786050118E-01
          0                 4           1             4    8     1      -0.2988525291E-04       4    8    1        -0.1279569741E-02      0.3833468529E-02

    ------------------------------------------------
       NWT REQUIRED            4 OUTER ITERATIONS 
       AND A TOTAL OF          7 INNER ITERATIONS.
    ------------------------------------------------

 NO OUTPUT CONTROL FOR STRESS PERIOD    8   TIME STEP    4
 
 SOLVING FOR HEAD 
                                                   Max.-Head-Change                         Max.-Flux-Residual
  Residual-Control   Outer-Iter.   Inner-Iter.     Column Row Layer    Maximum-Head-Change  Column Row Layer    Maximum-Flux-Residual          L2-NORM 
          0                 1           2             4    8     1       0.4648985349E-01       4    8    1         0.1762279609E+01      0.5221219834E+01
          0                 2           2             4    8     1      -0.4606740173E-02       4    8    1        -0.1762288239E+00      0.5221070053E+00
          0                 3           2             4    8     1       0.4108407955E-03       4    8    1         0.1586058765E-01      0.4698816519E-01
          0                 4           1             4    8     1      -0.3260974219E-04       4    8    1        -0.1270433463E-02      0.3763630085E-02

    ------------------------------------------------
       NWT REQUIRED            4 OUTER ITERATIONS 
       AND A TOTAL OF          7 INNER ITERATIONS.
    ------------------------------------------------

 OUTPUT CONTROL FOR STRESS PERIOD    8   TIME STEP    5
    PRINT BUDGET
    SAVE BUDGET

  HEAD DEP BOUNDS   PERIOD    8   STEP     5
 BOUNDARY      1   LAYER   1   ROW    13   COL     1   RATE   -0.277745    
 BOUNDARY      2   LAYER   1   ROW    14   COL     9   RATE    0.301714    



 STREAM LISTING     PERIOD      8   STEP        5

 LAYER ROW COL. STREAM  RCH.  FLOW INTO     FLOW TO   FLOW OUT OF   OVRLND.     DIRECT     STREAM       STREAM     STREAM     STREAM   STREAMBED  STREAMBED
                SEG.NO.  NO.  STRM. RCH.    AQUIFER    STRM. RCH.    RUNOFF     PRECIP       ET          HEAD       DEPTH      WIDTH   CONDCTNC.   GRADIENT

   1    1    1     1     1    2.5000E+01  2.4590E-01   2.5081E+01  3.270E-01  0.000E+00  0.000E+00  1.09423E+03  1.181E+00  1.307E+01  5.882E-02  1.394E+00
   1    2    2     1     2    2.5081E+01  3.8325E-01   2.5207E+01  5.087E-01  0.000E+00  0.000E+00  1.08924E+03  1.182E+00  1.309E+01  9.164E-02  1.394E+00
   1    3    3     1     3    2.5207E+01  3.2921E-01   2.5313E+01  4.360E-01  0.000E+00  0.000E+00  1.08360E+03  1.184E+00  1.311E+01  7.868E-02  1.395E+00
   1    3    4     1     4    2.5313E+01  3.0510E-01   2.5412E+01  4.033E-01  0.000E+00  0.000E+00  1.07859E+03  1.186E+00  1.313E+01  7.289E-02  1.395E+00
   1    4    5     2     1    1.5412E+01  0.0000E+00   1.5706E+01  2.943E-01  0.000E+00  0.000E+00  1.07284E+03  9.085E-01  1.200E+01  0.000E+00  1.303E+00
   1    5    6     2     2    1.5706E+01  0.0000E+00   1.5932E+01  2.264E-01  0.000E+00  0.000E+00  1.06743E+03  9.176E-01  1.200E+01  0.000E+00  1.306E+00
   1    6    6     2     3    1.5932E+01  0.0000E+00   1.6159E+01  2.264E-01  0.000E+00  0.000E+00  1.06272E+03  9.255E-01  1.200E+01  0.000E+00  1.308E+00
   1    7    6     2     4    1.6159E+01  0.0000E+00   1.6385E+01  2.264E-01  0.000E+00  0.000E+00  1.05801E+03  9.333E-01  1.200E+01  0.000E+00  1.311E+00
   1    8    6     2     5    1.6385E+01  0.0000E+00   1.6612E+01  2.264E-01  0.000E+00  0.000E+00  1.05330E+03  9.410E-01  1.200E+01  0.000E+00  1.314E+00
   1    3    5     3     1    1.0000E+01  2.8252E-01   1.0831E+01  1.114E+00  0.000E+00  0.000E+00  1.07555E+03  1.909E+00  9.636E+00  7.227E-02  1.955E+00
   1    3    6     3     2    1.0831E+01  2.4905E-01   1.1696E+01  1.114E+00  0.000E+00  0.000E+00  1.07264E+03  1.727E+00  8.909E+00  6.682E-02  1.864E+00
   1    3    7     3     3    1.1696E+01  1.9718E-01   1.2501E+01  1.002E+00  0.000E+00  0.000E+00  1.06987E+03  1.555E+00  8.218E+00  5.547E-02  1.777E+00
   1    4    8     3     4    1.2501E+01  2.2567E-01   1.3611E+01  1.336E+00  0.000E+00  0.000E+00  1.06682E+03  1.364E+00  7.455E+00  6.709E-02  1.682E+00
   1    5    8     3     5    1.3611E+01  1.5790E-01   1.4567E+01  1.114E+00  0.000E+00  0.000E+00  1.06362E+03  1.164E+00  6.655E+00  4.991E-02  1.582E+00
   1    6    8     3     6    1.4567E+01  5.5980E-02   1.4957E+01  4.455E-01  0.000E+00  0.000E+00  1.06158E+03  1.036E+00  6.145E+00  1.844E-02  1.518E+00
   1    5   10     4     1    1.0000E+01  0.0000E+00   1.0227E+01  2.273E-01  0.000E+00  0.000E+00  1.07837E+03  6.429E-01  1.000E+01  0.000E+00  1.214E+00
   1    5    9     4     2    1.0227E+01  0.0000E+00   1.0682E+01  4.545E-01  0.000E+00  0.000E+00  1.07156E+03  6.558E-01  1.000E+01  0.000E+00  1.219E+00
   1    6    8     4     3    1.0682E+01  0.0000E+00   1.1000E+01  3.182E-01  0.000E+00  0.000E+00  1.06385E+03  6.702E-01  1.000E+01  0.000E+00  1.223E+00
   1    6    8     5     1    2.5957E+01  4.2216E-01   2.5928E+01  3.933E-01  0.000E+00  0.000E+00  1.05894E+03  9.376E-01  2.680E+01  1.072E-01  1.313E+00
   1    7    7     5     2    2.5928E+01  5.2726E-01   2.5892E+01  4.917E-01  0.000E+00  0.000E+00  1.05444E+03  9.372E-01  2.678E+01  1.339E-01  1.312E+00
   1    8    7     5     3    2.5892E+01  3.6879E-01   2.5868E+01  3.442E-01  0.000E+00  0.000E+00  1.05019E+03  9.368E-01  2.676E+01  9.368E-02  1.312E+00
   1    8    6     5     4    2.5868E+01  2.6327E-01   2.5850E+01  2.458E-01  0.000E+00  0.000E+00  1.04719E+03  9.366E-01  2.675E+01  6.688E-02  1.312E+00
   1    9    6     6     1    4.2462E+01  0.0000E+00   4.3246E+01  7.841E-01  0.000E+00  0.000E+00  1.04441E+03  1.687E+00  1.200E+01  0.000E+00  1.562E+00
   1   10    7     6     2    4.3246E+01  0.0000E+00   4.4030E+01  7.841E-01  0.000E+00  0.000E+00  1.03989E+03  1.706E+00  1.200E+01  0.000E+00  1.569E+00
   1   11    7     6     3    4.4030E+01  0.0000E+00   4.4814E+01  7.841E-01  0.000E+00  0.000E+00  1.03536E+03  1.724E+00  1.200E+01  0.000E+00  1.575E+00
   1   12    7     6     4    4.4814E+01  0.0000E+00   4.5598E+01  7.841E-01  0.000E+00  0.000E+00  1.03083E+03  1.742E+00  1.200E+01  0.000E+00  1.581E+00
   1   13    7     6     5    4.5598E+01  0.0000E+00   4.5912E+01  3.136E-01  0.000E+00  0.000E+00  1.02766E+03  1.755E+00  1.200E+01  0.000E+00  9.293E-01
   1   14    9     7     1    1.5000E+02  1.5716E+00   1.4916E+02  7.339E-01  0.000E+00  0.000E+00  1.03987E+03  2.289E+00  5.530E+01  5.594E-01  9.365E-01
   1   13    8     7     2    1.4916E+02  2.5575E+00   1.4741E+02  8.073E-01  0.000E+00  0.000E+00  1.03478E+03  2.282E+00  5.527E+01  6.149E-01  1.386E+00
   1   13    7     7     3    1.4741E+02  2.6898E+00   1.4546E+02  7.339E-01  0.000E+00  0.000E+00  1.02969E+03  2.272E+00  5.523E+01  5.585E-01  1.605E+00
   1   13    6     8     1    1.9137E+02  2.2655E+00   1.9308E+02  3.978E+00  0.000E+00  0.000E+00  1.02497E+03  3.091E+00  4.483E+01  4.568E-01  1.653E+00
   1   13    5     8     2    1.9308E+02  1.6692E+00   1.9539E+02  3.978E+00  0.000E+00  0.000E+00  1.01873E+03  3.103E+00  4.500E+01  4.586E-01  1.213E+00
   1   13    4     8     3    1.9539E+02  6.8058E-01   1.9869E+02  3.978E+00  0.000E+00  0.000E+00  1.01250E+03  3.120E+00  4.524E+01  4.610E-01  4.921E-01
   1   13    3     8     4    1.9869E+02 -2.1640E-01   2.0288E+02  3.978E+00  0.000E+00  0.000E+00  1.00627E+03  3.142E+00  4.556E+01  4.643E+00 -1.554E-02
   1   13    2     8     5    2.0288E+02 -7.3451E-01   2.0759E+02  3.978E+00  0.000E+00  0.000E+00  1.00004E+03  3.168E+00  4.594E+01  4.681E+00 -5.230E-02
   1   13    1     8     6    2.0759E+02 -6.8852E-01   2.1067E+02  2.387E+00  0.000E+00  0.000E+00  9.95066E+02  3.191E+00  4.626E+01  2.829E+00 -8.113E-02



 UBDSV3 SAVING "     NETRECHARGE" ON UNIT 100 AT TIME STEP     5, STRESS PERIOD   8
 UBDSV3 SAVING "    NETDISCHARGE" ON UNIT 101 AT TIME STEP     5, STRESS PERIOD   8
 UBDSV3 SAVING "           GW ET" ON UNIT  61 AT TIME STEP     5, STRESS PERIOD   8
 UBDSV3 SAVING "    UZF RECHARGE" ON UNIT  61 AT TIME STEP     5, STRESS PERIOD   8
 UBDSV3 SAVING " SURFACE LEAKAGE" ON UNIT  61 AT TIME STEP     5, STRESS PERIOD   8
 UBDSV3 SAVING "       HORT+DUNN" ON UNIT  61 AT TIME STEP     5, STRESS PERIOD   8
 UBDSV3 SAVING "  STORAGE CHANGE" ON UNIT  61 AT TIME STEP     5, STRESS PERIOD   8


UNSATURATED ZONE PACKAGE VOLUMETRIC BUDGET FOR  TIME STEP     5 STRESS PERIOD    8
  ------------------------------------------------------------------------------



     CUMULATIVE VOLUMES      L**3       RATES FOR THIS TIME STEP      L**3/T
     ------------------                 ------------------------

           IN:                                      IN:
           ---                                      ---
        INFILTRATION =    54812812.6318          INFILTRATION =           2.9000

          OUT:                                     OUT:
          ----                                     ----
              UZF ET =    14594196.8993                UZF ET =           1.1723
        UZF RECHARGE =     7880960.6654          UZF RECHARGE =       0.0000E+00

            IN - OUT =    32337655.0671              IN - OUT =           1.7277

          STORAGE:                                 STORAGE:
          --------                                 --------
      STORAGE CHANGE =    32337653.6607        STORAGE CHANGE =           1.7277

 PERCENT DISCREPANCY IS DIFFERENCE BETWEEN IN-OUT MINUS CHANGE IN STORAGE
 DIVIDED BY THE AVERAGE OF IN AND OUT TIMES 100

 PERCENT DISCREPANCY =           0.00     PERCENT DISCREPANCY =           0.00






1
  VOLUMETRIC BUDGET FOR ENTIRE MODEL AT END OF TIME STEP    5, STRESS PERIOD   8
  ------------------------------------------------------------------------------

     CUMULATIVE VOLUMES      L**3       RATES FOR THIS TIME STEP      L**3/T
     ------------------                 ------------------------

           IN:                                      IN:
           ---                                      ---
             STORAGE =   396929632.0000               STORAGE =           8.4124
       CONSTANT HEAD =           0.0000         CONSTANT HEAD =           0.0000
               WELLS =           0.0000                 WELLS =           0.0000
     HEAD DEP BOUNDS =     5684950.0000       HEAD DEP BOUNDS =           0.3017
      STREAM LEAKAGE =   289356576.0000        STREAM LEAKAGE =          15.4474
        UZF RECHARGE =     7880964.5000          UZF RECHARGE =           0.0000
               GW ET =           0.0000                 GW ET =           0.0000
     SURFACE LEAKAGE =           0.0000       SURFACE LEAKAGE =           0.0000

            TOTAL IN =   699852160.0000              TOTAL IN =          24.1615

          OUT:                                     OUT:
          ----                                     ----
             STORAGE =    67325832.0000               STORAGE =          16.0968
       CONSTANT HEAD =           0.0000         CONSTANT HEAD =           0.0000
               WELLS =   473040000.0000                 WELLS =           0.0000
     HEAD DEP BOUNDS =     5394798.0000       HEAD DEP BOUNDS =           0.2777
      STREAM LEAKAGE =    50395388.0000        STREAM LEAKAGE =           1.6394
        UZF RECHARGE =           0.0000          UZF RECHARGE =           0.0000
               GW ET =   103710880.0000                 GW ET =           6.1472
     SURFACE LEAKAGE =           0.0000       SURFACE LEAKAGE =           0.0000

           TOTAL OUT =   699866880.0000             TOTAL OUT =          24.1611

            IN - OUT =      -14720.0000              IN - OUT =       3.9101E-04

 PERCENT DISCREPANCY =          -0.00     PERCENT DISCREPANCY =           0.00






         TIME SUMMARY AT END OF TIME STEP    5 IN STRESS PERIOD    8
                    SECONDS     MINUTES      HOURS       DAYS        YEARS
                    -----------------------------------------------------------
   TIME STEP LENGTH 1.21100E+05  2018.3      33.639      1.4016     3.83743E-03
 STRESS PERIOD TIME 5.04972E+05  8416.2      140.27      5.8446     1.60016E-02
         TOTAL TIME 1.89010E+07 3.15016E+05  5250.3      218.76     0.59894    
1
 
 SOLVING FOR HEAD 
                                                   Max.-Head-Change                         Max.-Flux-Residual
  Residual-Control   Outer-Iter.   Inner-Iter.     Column Row Layer    Maximum-Head-Change  Column Row Layer    Maximum-Flux-Residual          L2-NORM 
          0                 1           2             4    8     1       0.5067642815E-01       4    8    1         0.1748120675E+01      0.5120333019E+01
          0                 2           2             4    8     1      -0.5021597847E-02       4    8    1        -0.1748131188E+00      0.5120218469E+00
          0                 3           2             4    8     1       0.4478388123E-03       4    8    1         0.1573317231E-01      0.4608074766E-01
          0                 4           1             4    8     1      -0.3554639350E-04       4    8    1        -0.1260227522E-02      0.3690976259E-02

    ------------------------------------------------
       NWT REQUIRED            4 OUTER ITERATIONS 
       AND A TOTAL OF          7 INNER ITERATIONS.
    ------------------------------------------------

 NO OUTPUT CONTROL FOR STRESS PERIOD    8   TIME STEP    6
 
 SOLVING FOR HEAD 
                                                   Max.-Head-Change                         Max.-Flux-Residual
  Residual-Control   Outer-Iter.   Inner-Iter.     Column Row Layer    Maximum-Head-Change  Column Row Layer    Maximum-Flux-Residual          L2-NORM 
          0                 1           2             4    8     1       0.5517666151E-01       4    8    1         0.1732316723E+01      0.5015673600E+01
          0                 2           2             4    8     1      -0.5467538492E-02       4    8    1        -0.1732329592E+00      0.5015592932E+00
          0                 3           2             4    8     1       0.4876088661E-03       4    8    1         0.1559095562E-01      0.4513924844E-01
          0                 4           1             4    8     1      -0.3870306936E-04       4    8    1        -0.1248835969E-02      0.3615506912E-02

    ------------------------------------------------
       NWT REQUIRED            4 OUTER ITERATIONS 
       AND A TOTAL OF          7 INNER ITERATIONS.
    ------------------------------------------------

 NO OUTPUT CONTROL FOR STRESS PERIOD    8   TIME STEP    7
 
 SOLVING FOR HEAD 
                                                   Max.-Head-Change                         Max.-Flux-Residual
  Residual-Control   Outer-Iter.   Inner-Iter.     Column Row Layer    Maximum-Head-Change  Column Row Layer    Maximum-Flux-Residual          L2-NORM 
          0                 1           2             4    8     1       0.5999862291E-01       4    8    1         0.1714683763E+01      0.4907370138E+01
          0                 2           2             4    8     1      -0.5945362501E-02       4    8    1        -0.1714699574E+00      0.4907321215E+00
          0                 3           2             4    8     1       0.5302223303E-03       4    8    1         0.1543228256E-01      0.4416524488E-01
          0                 4           1             4    8     1      -0.4208543649E-04       4    8    1        -0.1236126270E-02      0.3537618569E-02

    ------------------------------------------------
       NWT REQUIRED            4 OUTER ITERATIONS 
       AND A TOTAL OF          7 INNER ITERATIONS.
    ------------------------------------------------

 NO OUTPUT CONTROL FOR STRESS PERIOD    8   TIME STEP    8
 
 SOLVING FOR HEAD 
                                                   Max.-Head-Change                         Max.-Flux-Residual
  Residual-Control   Outer-Iter.   Inner-Iter.     Column Row Layer    Maximum-Head-Change  Column Row Layer    Maximum-Flux-Residual          L2-NORM 
          0                 1           2             4    8     1       0.6514658355E-01       4    8    1         0.1695027018E+01      0.4795570217E+01
          0                 2           2             4    8     1      -0.6455494156E-02       4    8    1        -0.1695046483E+00      0.4795549092E+00
          0                 3           2             4    8     1       0.5757170337E-03       4    8    1         0.1525540113E-01      0.4315950046E-01
          0                 4           1             4    8     1      -0.4569649706E-04       4    8    1        -0.1221958099E-02      0.3457039461E-02

    ------------------------------------------------
       NWT REQUIRED            4 OUTER ITERATIONS 
       AND A TOTAL OF          7 INNER ITERATIONS.
    ------------------------------------------------

 NO OUTPUT CONTROL FOR STRESS PERIOD    8   TIME STEP    9
 
 SOLVING FOR HEAD 
                                                   Max.-Head-Change                         Max.-Flux-Residual
  Residual-Control   Outer-Iter.   Inner-Iter.     Column Row Layer    Maximum-Head-Change  Column Row Layer    Maximum-Flux-Residual          L2-NORM 
          0                 1           2             4    8     1       0.7062031188E-01       4    8    1         0.1673152156E+01      0.4680417434E+01
          0                 2           2             4    8     1      -0.6997911861E-02       4    8    1        -0.1673176131E+00      0.4680418132E+00
          0                 3           2             4    8     1       0.6240910359E-03       4    8    1         0.1505856351E-01      0.4212345656E-01
          0                 4           1             4    8     1      -0.4953609667E-04       4    8    1        -0.1206191432E-02      0.3374062113E-02

    ------------------------------------------------
       NWT REQUIRED            4 OUTER ITERATIONS 
       AND A TOTAL OF          7 INNER ITERATIONS.
    ------------------------------------------------

 OUTPUT CONTROL FOR STRESS PERIOD    8   TIME STEP   10
    PRINT BUDGET
    SAVE BUDGET

  HEAD DEP BOUNDS   PERIOD    8   STEP    10
 BOUNDARY      1   LAYER   1   ROW    13   COL     1   RATE   -0.277931    
 BOUNDARY      2   LAYER   1   ROW    14   COL     9   RATE    0.301783    



 STREAM LISTING     PERIOD      8   STEP       10

 LAYER ROW COL. STREAM  RCH.  FLOW INTO     FLOW TO   FLOW OUT OF   OVRLND.     DIRECT     STREAM       STREAM     STREAM     STREAM   STREAMBED  STREAMBED
                SEG.NO.  NO.  STRM. RCH.    AQUIFER    STRM. RCH.    RUNOFF     PRECIP       ET          HEAD       DEPTH      WIDTH   CONDCTNC.   GRADIENT

   1    1    1     1     1    2.5000E+01  2.4590E-01   2.5081E+01  3.270E-01  0.000E+00  0.000E+00  1.09423E+03  1.181E+00  1.307E+01  5.882E-02  1.394E+00
   1    2    2     1     2    2.5081E+01  3.8325E-01   2.5207E+01  5.087E-01  0.000E+00  0.000E+00  1.08924E+03  1.182E+00  1.309E+01  9.164E-02  1.394E+00
   1    3    3     1     3    2.5207E+01  3.2921E-01   2.5313E+01  4.360E-01  0.000E+00  0.000E+00  1.08360E+03  1.184E+00  1.311E+01  7.868E-02  1.395E+00
   1    3    4     1     4    2.5313E+01  3.0510E-01   2.5412E+01  4.033E-01  0.000E+00  0.000E+00  1.07859E+03  1.186E+00  1.313E+01  7.289E-02  1.395E+00
   1    4    5     2     1    1.5412E+01  0.0000E+00   1.5706E+01  2.943E-01  0.000E+00  0.000E+00  1.07284E+03  9.085E-01  1.200E+01  0.000E+00  1.303E+00
   1    5    6     2     2    1.5706E+01  0.0000E+00   1.5932E+01  2.264E-01  0.000E+00  0.000E+00  1.06743E+03  9.176E-01  1.200E+01  0.000E+00  1.306E+00
   1    6    6     2     3    1.5932E+01  0.0000E+00   1.6159E+01  2.264E-01  0.000E+00  0.000E+00  1.06272E+03  9.255E-01  1.200E+01  0.000E+00  1.308E+00
   1    7    6     2     4    1.6159E+01  0.0000E+00   1.6385E+01  2.264E-01  0.000E+00  0.000E+00  1.05801E+03  9.333E-01  1.200E+01  0.000E+00  1.311E+00
   1    8    6     2     5    1.6385E+01  0.0000E+00   1.6612E+01  2.264E-01  0.000E+00  0.000E+00  1.05330E+03  9.410E-01  1.200E+01  0.000E+00  1.314E+00
   1    3    5     3     1    1.0000E+01  2.8252E-01   1.0831E+01  1.114E+00  0.000E+00  0.000E+00  1.07555E+03  1.909E+00  9.636E+00  7.227E-02  1.955E+00
   1    3    6     3     2    1.0831E+01  2.4905E-01   1.1696E+01  1.114E+00  0.000E+00  0.000E+00  1.07264E+03  1.727E+00  8.909E+00  6.682E-02  1.864E+00
   1    3    7     3     3    1.1696E+01  1.9718E-01   1.2501E+01  1.002E+00  0.000E+00  0.000E+00  1.06987E+03  1.555E+00  8.218E+00  5.547E-02  1.777E+00
   1    4    8     3     4    1.2501E+01  2.2567E-01   1.3611E+01  1.336E+00  0.000E+00  0.000E+00  1.06682E+03  1.364E+00  7.455E+00  6.709E-02  1.682E+00
   1    5    8     3     5    1.3611E+01  1.5790E-01   1.4567E+01  1.114E+00  0.000E+00  0.000E+00  1.06362E+03  1.164E+00  6.655E+00  4.991E-02  1.582E+00
   1    6    8     3     6    1.4567E+01  5.5980E-02   1.4957E+01  4.455E-01  0.000E+00  0.000E+00  1.06158E+03  1.036E+00  6.145E+00  1.844E-02  1.518E+00
   1    5   10     4     1    1.0000E+01  0.0000E+00   1.0227E+01  2.273E-01  0.000E+00  0.000E+00  1.07837E+03  6.429E-01  1.000E+01  0.000E+00  1.214E+00
   1    5    9     4     2    1.0227E+01  0.0000E+00   1.0682E+01  4.545E-01  0.000E+00  0.000E+00  1.07156E+03  6.558E-01  1.000E+01  0.000E+00  1.219E+00
   1    6    8     4     3    1.0682E+01  0.0000E+00   1.1000E+01  3.182E-01  0.000E+00  0.000E+00  1.06385E+03  6.702E-01  1.000E+01  0.000E+00  1.223E+00
   1    6    8     5     1    2.5957E+01  4.2216E-01   2.5928E+01  3.933E-01  0.000E+00  0.000E+00  1.05894E+03  9.376E-01  2.680E+01  1.072E-01  1.313E+00
   1    7    7     5     2    2.5928E+01  5.2726E-01   2.5892E+01  4.917E-01  0.000E+00  0.000E+00  1.05444E+03  9.372E-01  2.678E+01  1.339E-01  1.312E+00
   1    8    7     5     3    2.5892E+01  3.6879E-01   2.5868E+01  3.442E-01  0.000E+00  0.000E+00  1.05019E+03  9.368E-01  2.676E+01  9.368E-02  1.312E+00
   1    8    6     5     4    2.5868E+01  2.6327E-01   2.5850E+01  2.458E-01  0.000E+00  0.000E+00  1.04719E+03  9.366E-01  2.675E+01  6.688E-02  1.312E+00
   1    9    6     6     1    4.2462E+01  0.0000E+00   4.3246E+01  7.841E-01  0.000E+00  0.000E+00  1.04441E+03  1.687E+00  1.200E+01  0.000E+00  1.562E+00
   1   10    7     6     2    4.3246E+01  0.0000E+00   4.4030E+01  7.841E-01  0.000E+00  0.000E+00  1.03989E+03  1.706E+00  1.200E+01  0.000E+00  1.569E+00
   1   11    7     6     3    4.4030E+01  0.0000E+00   4.4814E+01  7.841E-01  0.000E+00  0.000E+00  1.03536E+03  1.724E+00  1.200E+01  0.000E+00  1.575E+00
   1   12    7     6     4    4.4814E+01  0.0000E+00   4.5598E+01  7.841E-01  0.000E+00  0.000E+00  1.03083E+03  1.742E+00  1.200E+01  0.000E+00  1.581E+00
   1   13    7     6     5    4.5598E+01  0.0000E+00   4.5912E+01  3.136E-01  0.000E+00  0.000E+00  1.02766E+03  1.755E+00  1.200E+01  0.000E+00  9.346E-01
   1   14    9     7     1    1.5000E+02  1.5726E+00   1.4916E+02  7.339E-01  0.000E+00  0.000E+00  1.03987E+03  2.289E+00  5.530E+01  5.594E-01  9.371E-01
   1   13    8     7     2    1.4916E+02  2.5613E+00   1.4741E+02  8.073E-01  0.000E+00  0.000E+00  1.03478E+03  2.282E+00  5.527E+01  6.149E-01  1.388E+00
   1   13    7     7     3    1.4741E+02  2.6985E+00   1.4544E+02  7.339E-01  0.000E+00  0.000E+00  1.02969E+03  2.272E+00  5.523E+01  5.585E-01  1.610E+00
   1   13    6     8     1    1.9135E+02  2.2754E+00   1.9306E+02  3.978E+00  0.000E+00  0.000E+00  1.02497E+03  3.091E+00  4.482E+01  4.568E-01  1.661E+00
   1   13    5     8     2    1.9306E+02  1.6803E+00   1.9535E+02  3.978E+00  0.000E+00  0.000E+00  1.01873E+03  3.103E+00  4.500E+01  4.585E-01  1.221E+00
   1   13    4     8     3    1.9535E+02  6.9036E-01   1.9864E+02  3.978E+00  0.000E+00  0.000E+00  1.01249E+03  3.120E+00  4.524E+01  4.610E-01  4.992E-01
   1   13    3     8     4    1.9864E+02 -2.5844E-01   2.0288E+02  3.978E+00  0.000E+00  0.000E+00  1.00627E+03  3.142E+00  4.556E+01  4.643E+00 -1.855E-02
   1   13    2     8     5    2.0288E+02 -8.0208E-01   2.0766E+02  3.978E+00  0.000E+00  0.000E+00  1.00004E+03  3.168E+00  4.594E+01  4.682E+00 -5.711E-02
   1   13    1     8     6    2.0766E+02 -7.0125E-01   2.1075E+02  2.387E+00  0.000E+00  0.000E+00  9.95066E+02  3.191E+00  4.627E+01  2.829E+00 -8.262E-02



 UBDSV3 SAVING "     NETRECHARGE" ON UNIT 100 AT TIME STEP    10, STRESS PERIOD   8
 UBDSV3 SAVING "    NETDISCHARGE" ON UNIT 101 AT TIME STEP    10, STRESS PERIOD   8
 UBDSV3 SAVING "           GW ET" ON UNIT  61 AT TIME STEP    10, STRESS PERIOD   8
 UBDSV3 SAVING "    UZF RECHARGE" ON UNIT  61 AT TIME STEP    10, STRESS PERIOD   8
 UBDSV3 SAVING " SURFACE LEAKAGE" ON UNIT  61 AT TIME STEP    10, STRESS PERIOD   8
 UBDSV3 SAVING "       HORT+DUNN" ON UNIT  61 AT TIME STEP    10, STRESS PERIOD   8
 UBDSV3 SAVING "  STORAGE CHANGE" ON UNIT  61 AT TIME STEP    10, STRESS PERIOD   8


UNSATURATED ZONE PACKAGE VOLUMETRIC BUDGET FOR  TIME STEP    10 STRESS PERIOD    8
  ------------------------------------------------------------------------------



     CUMULATIVE VOLUMES      L**3       RATES FOR THIS TIME STEP      L**3/T
     ------------------                 ------------------------

           IN:                                      IN:
           ---                                      ---
        INFILTRATION =    57171271.8994          INFILTRATION =           2.9000

          OUT:                                     OUT:
          ----                                     ----
              UZF ET =    15545801.2257                UZF ET =           1.1603
        UZF RECHARGE =     7880960.6654          UZF RECHARGE =       0.0000E+00

            IN - OUT =    33744510.0083              IN - OUT =           1.7397

          STORAGE:                                 STORAGE:
          --------                                 --------
      STORAGE CHANGE =    33744508.5807        STORAGE CHANGE =           1.7397

 PERCENT DISCREPANCY IS DIFFERENCE BETWEEN IN-OUT MINUS CHANGE IN STORAGE
 DIVIDED BY THE AVERAGE OF IN AND OUT TIMES 100

 PERCENT DISCREPANCY =           0.00     PERCENT DISCREPANCY =           0.00






1
  VOLUMETRIC BUDGET FOR ENTIRE MODEL AT END OF TIME STEP   10, STRESS PERIOD   8
  ------------------------------------------------------------------------------

     CUMULATIVE VOLUMES      L**3       RATES FOR THIS TIME STEP      L**3/T
     ------------------                 ------------------------

           IN:                                      IN:
           ---                                      ---
             STORAGE =   403299264.0000               STORAGE =           7.5227
       CONSTANT HEAD =           0.0000         CONSTANT HEAD =           0.0000
               WELLS =           0.0000                 WELLS =           0.0000
     HEAD DEP BOUNDS =     5930356.0000       HEAD DEP BOUNDS =           0.3018
      STREAM LEAKAGE =   301941280.0000        STREAM LEAKAGE =          15.4917
        UZF RECHARGE =     7880964.5000          UZF RECHARGE =           0.0000
               GW ET =           0.0000                 GW ET =           0.0000
     SURFACE LEAKAGE =           0.0000       SURFACE LEAKAGE =           0.0000

            TOTAL IN =   719051904.0000              TOTAL IN =          23.3162

          OUT:                                     OUT:
          ----                                     ----
             STORAGE =    79899416.0000               STORAGE =          15.1279
       CONSTANT HEAD =           0.0000         CONSTANT HEAD =           0.0000
               WELLS =   473040000.0000                 WELLS =           0.0000
     HEAD DEP BOUNDS =     5620772.5000       HEAD DEP BOUNDS =           0.2779
      STREAM LEAKAGE =    51795840.0000        STREAM LEAKAGE =           1.7618
        UZF RECHARGE =           0.0000          UZF RECHARGE =           0.0000
               GW ET =   108710296.0000                 GW ET =           6.1482
     SURFACE LEAKAGE =           0.0000       SURFACE LEAKAGE =           0.0000

           TOTAL OUT =   719066304.0000             TOTAL OUT =          23.3158

            IN - OUT =      -14400.0000              IN - OUT =       3.9101E-04

 PERCENT DISCREPANCY =          -0.00     PERCENT DISCREPANCY =           0.00






         TIME SUMMARY AT END OF TIME STEP   10 IN STRESS PERIOD    8
                    SECONDS     MINUTES      HOURS       DAYS        YEARS
                    -----------------------------------------------------------
   TIME STEP LENGTH 1.95033E+05  3250.6      54.176      2.2573     6.18023E-03
 STRESS PERIOD TIME 1.31823E+06  21971.      366.18      15.257     4.17723E-02
         TOTAL TIME 1.97142E+07 3.28570E+05  5476.2      228.17     0.62471    
1
 
 SOLVING FOR HEAD 
                                                   Max.-Head-Change                         Max.-Flux-Residual
  Residual-Control   Outer-Iter.   Inner-Iter.     Column Row Layer    Maximum-Head-Change  Column Row Layer    Maximum-Flux-Residual          L2-NORM 
          0                 1           2             4    8     1       0.7641307767E-01       4    8    1         0.1648844514E+01      0.4562066417E+01
          0                 2           2             4    8     1      -0.7571950418E-02       4    8    1        -0.1648874010E+00      0.4562084685E+00
          0                 3           2             4    8     1       0.6752849968E-03       4    8    1         0.1483983898E-01      0.4105855485E-01
          0                 4           1             4    8     1      -0.5359952597E-04       4    8    1        -0.1188671632E-02      0.3288715619E-02

    ------------------------------------------------
       NWT REQUIRED            4 OUTER ITERATIONS 
       AND A TOTAL OF          7 INNER ITERATIONS.
    ------------------------------------------------

 NO OUTPUT CONTROL FOR STRESS PERIOD    8   TIME STEP   11
 
 SOLVING FOR HEAD 
                                                   Max.-Head-Change                         Max.-Flux-Residual
  Residual-Control   Outer-Iter.   Inner-Iter.     Column Row Layer    Maximum-Head-Change  Column Row Layer    Maximum-Flux-Residual          L2-NORM 
          0                 1           2             4    8     1       0.8251166843E-01       4    8    1         0.1621906019E+01      0.4440659376E+01
          0                 2           2             4    8     1      -0.8176302710E-02       4    8    1        -0.1621942212E+00      0.4440689707E+00
          0                 3           2             4    8     1       0.7291823225E-03       4    8    1         0.1459744618E-01      0.3996610997E-01
          0                 4           1             4    8     1      -0.5787753178E-04       4    8    1        -0.1169256022E-02      0.3201271943E-02

    ------------------------------------------------
       NWT REQUIRED            4 OUTER ITERATIONS 
       AND A TOTAL OF          7 INNER ITERATIONS.
    ------------------------------------------------

 NO OUTPUT CONTROL FOR STRESS PERIOD    8   TIME STEP   12
 
 SOLVING FOR HEAD 
                                                   Max.-Head-Change                         Max.-Flux-Residual
  Residual-Control   Outer-Iter.   Inner-Iter.     Column Row Layer    Maximum-Head-Change  Column Row Layer    Maximum-Flux-Residual          L2-NORM 
          0                 1           2             4    8     1       0.8889441906E-01       4    8    1         0.1592138479E+01      0.4316393908E+01
          0                 2           2             4    8     1      -0.8808824487E-02       4    8    1        -0.1592182707E+00      0.4316430249E+00
          0                 3           2             4    8     1       0.7855917582E-03       4    8    1         0.1432960271E-01      0.3884768651E-01
          0                 4           1             4    8     1      -0.6235493087E-04       4    8    1        -0.1147801813E-02      0.3111695849E-02

    ------------------------------------------------
       NWT REQUIRED            4 OUTER ITERATIONS 
       AND A TOTAL OF          7 INNER ITERATIONS.
    ------------------------------------------------

 NO OUTPUT CONTROL FOR STRESS PERIOD    8   TIME STEP   13
 
 SOLVING FOR HEAD 
                                                   Max.-Head-Change                         Max.-Flux-Residual
  Residual-Control   Outer-Iter.   Inner-Iter.     Column Row Layer    Maximum-Head-Change  Column Row Layer    Maximum-Flux-Residual          L2-NORM 
          0                 1           2             4    8     1       0.9553066947E-01       4    8    1         0.1559363120E+01      0.4189426911E+01
          0                 2           2             4    8     1      -0.9466557845E-02       4    8    1        -0.1559416866E+00      0.4193317683E+00
          0                 3           2             4    8     1       0.8442494815E-03       4    8    1         0.1403470079E-01      0.3773962869E-01
          0                 4           1             4    8     1      -0.6701078536E-04       4    8    1        -0.1124180247E-02      0.3022960214E-02

    ------------------------------------------------
       NWT REQUIRED            4 OUTER ITERATIONS 
       AND A TOTAL OF          7 INNER ITERATIONS.
    ------------------------------------------------

 NO OUTPUT CONTROL FOR STRESS PERIOD    8   TIME STEP   14
 
 SOLVING FOR HEAD 
                                                   Max.-Head-Change                         Max.-Flux-Residual
  Residual-Control   Outer-Iter.   Inner-Iter.     Column Row Layer    Maximum-Head-Change  Column Row Layer    Maximum-Flux-Residual          L2-NORM 
          0                 1           2             4    8     1       0.1023796503E+00       4    8    1         0.1523430393E+01      0.4059669592E+01
          0                 2           2             4    8     1      -0.1014523497E-01       4    8    1        -0.1523495270E+00      0.4059719575E+00
          0                 3           2             4    8     1       0.9047748376E-03       4    8    1         0.1371139542E-01      0.3653719166E-01
          0                 4           1             4    8     1      -0.7181488016E-04       4    8    1        -0.1098283564E-02      0.2926630266E-02

    ------------------------------------------------
       NWT REQUIRED            4 OUTER ITERATIONS 
       AND A TOTAL OF          7 INNER ITERATIONS.
    ------------------------------------------------

 OUTPUT CONTROL FOR STRESS PERIOD    8   TIME STEP   15
    PRINT BUDGET
    PRINT HEAD FOR ALL LAYERS
    SAVE HEAD FOR ALL LAYERS
    SAVE BUDGET

  HEAD DEP BOUNDS   PERIOD    8   STEP    15
 BOUNDARY      1   LAYER   1   ROW    13   COL     1   RATE   -0.278103    
 BOUNDARY      2   LAYER   1   ROW    14   COL     9   RATE    0.301894    



 STREAM LISTING     PERIOD      8   STEP       15

 LAYER ROW COL. STREAM  RCH.  FLOW INTO     FLOW TO   FLOW OUT OF   OVRLND.     DIRECT     STREAM       STREAM     STREAM     STREAM   STREAMBED  STREAMBED
                SEG.NO.  NO.  STRM. RCH.    AQUIFER    STRM. RCH.    RUNOFF     PRECIP       ET          HEAD       DEPTH      WIDTH   CONDCTNC.   GRADIENT

   1    1    1     1     1    2.5000E+01  2.4590E-01   2.5081E+01  3.270E-01  0.000E+00  0.000E+00  1.09423E+03  1.181E+00  1.307E+01  5.882E-02  1.394E+00
   1    2    2     1     2    2.5081E+01  3.8325E-01   2.5207E+01  5.087E-01  0.000E+00  0.000E+00  1.08924E+03  1.182E+00  1.309E+01  9.164E-02  1.394E+00
   1    3    3     1     3    2.5207E+01  3.2921E-01   2.5313E+01  4.360E-01  0.000E+00  0.000E+00  1.08360E+03  1.184E+00  1.311E+01  7.868E-02  1.395E+00
   1    3    4     1     4    2.5313E+01  3.0510E-01   2.5412E+01  4.033E-01  0.000E+00  0.000E+00  1.07859E+03  1.186E+00  1.313E+01  7.289E-02  1.395E+00
   1    4    5     2     1    1.5412E+01  0.0000E+00   1.5706E+01  2.943E-01  0.000E+00  0.000E+00  1.07284E+03  9.085E-01  1.200E+01  0.000E+00  1.303E+00
   1    5    6     2     2    1.5706E+01  0.0000E+00   1.5932E+01  2.264E-01  0.000E+00  0.000E+00  1.06743E+03  9.176E-01  1.200E+01  0.000E+00  1.306E+00
   1    6    6     2     3    1.5932E+01  0.0000E+00   1.6159E+01  2.264E-01  0.000E+00  0.000E+00  1.06272E+03  9.255E-01  1.200E+01  0.000E+00  1.308E+00
   1    7    6     2     4    1.6159E+01  0.0000E+00   1.6385E+01  2.264E-01  0.000E+00  0.000E+00  1.05801E+03  9.333E-01  1.200E+01  0.000E+00  1.311E+00
   1    8    6     2     5    1.6385E+01  0.0000E+00   1.6612E+01  2.264E-01  0.000E+00  0.000E+00  1.05330E+03  9.410E-01  1.200E+01  0.000E+00  1.314E+00
   1    3    5     3     1    1.0000E+01  2.8252E-01   1.0831E+01  1.114E+00  0.000E+00  0.000E+00  1.07555E+03  1.909E+00  9.636E+00  7.227E-02  1.955E+00
   1    3    6     3     2    1.0831E+01  2.4905E-01   1.1696E+01  1.114E+00  0.000E+00  0.000E+00  1.07264E+03  1.727E+00  8.909E+00  6.682E-02  1.864E+00
   1    3    7     3     3    1.1696E+01  1.9718E-01   1.2501E+01  1.002E+00  0.000E+00  0.000E+00  1.06987E+03  1.555E+00  8.218E+00  5.547E-02  1.777E+00
   1    4    8     3     4    1.2501E+01  2.2567E-01   1.3611E+01  1.336E+00  0.000E+00  0.000E+00  1.06682E+03  1.364E+00  7.455E+00  6.709E-02  1.682E+00
   1    5    8     3     5    1.3611E+01  1.5790E-01   1.4567E+01  1.114E+00  0.000E+00  0.000E+00  1.06362E+03  1.164E+00  6.655E+00  4.991E-02  1.582E+00
   1    6    8     3     6    1.4567E+01  5.5980E-02   1.4957E+01  4.455E-01  0.000E+00  0.000E+00  1.06158E+03  1.036E+00  6.145E+00  1.844E-02  1.518E+00
   1    5   10     4     1    1.0000E+01  0.0000E+00   1.0227E+01  2.273E-01  0.000E+00  0.000E+00  1.07837E+03  6.429E-01  1.000E+01  0.000E+00  1.214E+00
   1    5    9     4     2    1.0227E+01  0.0000E+00   1.0682E+01  4.545E-01  0.000E+00  0.000E+00  1.07156E+03  6.558E-01  1.000E+01  0.000E+00  1.219E+00
   1    6    8     4     3    1.0682E+01  0.0000E+00   1.1000E+01  3.182E-01  0.000E+00  0.000E+00  1.06385E+03  6.702E-01  1.000E+01  0.000E+00  1.223E+00
   1    6    8     5     1    2.5957E+01  4.2216E-01   2.5928E+01  3.933E-01  0.000E+00  0.000E+00  1.05894E+03  9.376E-01  2.680E+01  1.072E-01  1.313E+00
   1    7    7     5     2    2.5928E+01  5.2726E-01   2.5892E+01  4.917E-01  0.000E+00  0.000E+00  1.05444E+03  9.372E-01  2.678E+01  1.339E-01  1.312E+00
   1    8    7     5     3    2.5892E+01  3.6879E-01   2.5868E+01  3.442E-01  0.000E+00  0.000E+00  1.05019E+03  9.368E-01  2.676E+01  9.368E-02  1.312E+00
   1    8    6     5     4    2.5868E+01  2.6327E-01   2.5850E+01  2.458E-01  0.000E+00  0.000E+00  1.04719E+03  9.366E-01  2.675E+01  6.688E-02  1.312E+00
   1    9    6     6     1    4.2462E+01  0.0000E+00   4.3246E+01  7.841E-01  0.000E+00  0.000E+00  1.04441E+03  1.687E+00  1.200E+01  0.000E+00  1.562E+00
   1   10    7     6     2    4.3246E+01  0.0000E+00   4.4030E+01  7.841E-01  0.000E+00  0.000E+00  1.03989E+03  1.706E+00  1.200E+01  0.000E+00  1.569E+00
   1   11    7     6     3    4.4030E+01  0.0000E+00   4.4814E+01  7.841E-01  0.000E+00  0.000E+00  1.03536E+03  1.724E+00  1.200E+01  0.000E+00  1.575E+00
   1   12    7     6     4    4.4814E+01  0.0000E+00   4.5598E+01  7.841E-01  0.000E+00  0.000E+00  1.03083E+03  1.742E+00  1.200E+01  0.000E+00  1.581E+00
   1   13    7     6     5    4.5598E+01  0.0000E+00   4.5912E+01  3.136E-01  0.000E+00  0.000E+00  1.02766E+03  1.755E+00  1.200E+01  0.000E+00  9.426E-01
   1   14    9     7     1    1.5000E+02  1.5742E+00   1.4916E+02  7.339E-01  0.000E+00  0.000E+00  1.03987E+03  2.289E+00  5.530E+01  5.594E-01  9.381E-01
   1   13    8     7     2    1.4916E+02  2.5676E+00   1.4740E+02  8.073E-01  0.000E+00  0.000E+00  1.03478E+03  2.282E+00  5.527E+01  6.149E-01  1.392E+00
   1   13    7     7     3    1.4740E+02  2.7119E+00   1.4542E+02  7.339E-01  0.000E+00  0.000E+00  1.02969E+03  2.272E+00  5.522E+01  5.585E-01  1.618E+00
   1   13    6     8     1    1.9133E+02  2.2901E+00   1.9302E+02  3.978E+00  0.000E+00  0.000E+00  1.02497E+03  3.091E+00  4.482E+01  4.567E-01  1.671E+00
   1   13    5     8     2    1.9302E+02  1.6958E+00   1.9530E+02  3.978E+00  0.000E+00  0.000E+00  1.01873E+03  3.103E+00  4.499E+01  4.585E-01  1.233E+00
   1   13    4     8     3    1.9530E+02  7.0318E-01   1.9858E+02  3.978E+00  0.000E+00  0.000E+00  1.01249E+03  3.120E+00  4.523E+01  4.610E-01  5.085E-01
   1   13    3     8     4    1.9858E+02 -2.5978E-01   2.0281E+02  3.978E+00  0.000E+00  0.000E+00  1.00627E+03  3.142E+00  4.556E+01  4.642E+00 -1.865E-02
   1   13    2     8     5    2.0281E+02 -8.3934E-01   2.0763E+02  3.978E+00  0.000E+00  0.000E+00  1.00004E+03  3.168E+00  4.594E+01  4.681E+00 -5.976E-02
   1   13    1     8     6    2.0763E+02 -7.1434E-01   2.1073E+02  2.387E+00  0.000E+00  0.000E+00  9.95066E+02  3.191E+00  4.627E+01  2.829E+00 -8.417E-02



 UBDSV3 SAVING "     NETRECHARGE" ON UNIT 100 AT TIME STEP    15, STRESS PERIOD   8
 UBDSV3 SAVING "    NETDISCHARGE" ON UNIT 101 AT TIME STEP    15, STRESS PERIOD   8
 UBDSV3 SAVING "           GW ET" ON UNIT  61 AT TIME STEP    15, STRESS PERIOD   8
 UBDSV3 SAVING "    UZF RECHARGE" ON UNIT  61 AT TIME STEP    15, STRESS PERIOD   8
 UBDSV3 SAVING " SURFACE LEAKAGE" ON UNIT  61 AT TIME STEP    15, STRESS PERIOD   8
 UBDSV3 SAVING "       HORT+DUNN" ON UNIT  61 AT TIME STEP    15, STRESS PERIOD   8
 UBDSV3 SAVING "  STORAGE CHANGE" ON UNIT  61 AT TIME STEP    15, STRESS PERIOD   8


UNSATURATED ZONE PACKAGE VOLUMETRIC BUDGET FOR  TIME STEP    15 STRESS PERIOD    8
  ------------------------------------------------------------------------------



     CUMULATIVE VOLUMES      L**3       RATES FOR THIS TIME STEP      L**3/T
     ------------------                 ------------------------

           IN:                                      IN:
           ---                                      ---
        INFILTRATION =    60969594.2510          INFILTRATION =           2.9000

          OUT:                                     OUT:
          ----                                     ----
              UZF ET =    17077222.6471                UZF ET =           1.1749
        UZF RECHARGE =     7880960.6654          UZF RECHARGE =       0.0000E+00

            IN - OUT =    36011410.9385              IN - OUT =           1.7251

          STORAGE:                                 STORAGE:
          --------                                 --------
      STORAGE CHANGE =    36011409.5572        STORAGE CHANGE =           1.7251

 PERCENT DISCREPANCY IS DIFFERENCE BETWEEN IN-OUT MINUS CHANGE IN STORAGE
 DIVIDED BY THE AVERAGE OF IN AND OUT TIMES 100

 PERCENT DISCREPANCY =           0.00     PERCENT DISCREPANCY =           0.00






1
              HEAD IN LAYER   1 AT END OF TIME STEP    15 IN STRESS PERIOD    8
  -----------------------------------------------------------------------------

           1       2       3       4       5       6       7       8       9      10
 ...................................................................................
   1  1029.21 1025.65 6999.00 6999.00 6999.00 6999.00 6999.00 6999.00 6999.00 6999.00
   2  1025.98 1021.10 1019.07 6999.00 6999.00 1017.49 1017.76 1017.91 6999.00 6999.00
   3  6999.00 1018.05 1016.76 1015.68 1015.58 1016.13 1016.91 1017.13 6999.00 6999.00
   4  1016.03 1016.03 1014.99 1013.91 1013.58 1013.80 1014.83 1016.36 1016.10 6999.00
   5  1015.23 1014.33 1012.98 1012.11 1012.27 1012.91 1013.73 1014.64 1015.12 1015.45
   6  1014.43 1013.12 1011.22 1010.41 1010.85 1012.04 1013.31 1014.40 1015.04 1015.76
   7  1013.90 1012.23 1010.05 1009.25 1009.94 1011.46 1013.10 1014.01 1015.27 6999.00
   8  6999.00 1011.61 1009.52 1008.78 1009.62 1011.27 1012.87 1014.36 1016.20 6999.00
   9  6999.00 1011.14 1009.53 1009.08 1009.97 1011.56 1013.13 1015.19 1017.77 6999.00
  10  6999.00 1010.62 1009.90 1009.99 1010.95 1012.64 1014.19 1016.59 1019.47 1020.38
  11  6999.00 1009.37 1010.01 1011.07 1012.46 1014.46 1016.41 1019.41 1022.72 6999.00
  12  1000.80 1005.56 1008.85 1011.28 1013.80 1016.81 1019.57 1024.48 1028.39 6999.00
  13   995.32 1000.22 1006.32 1010.97 1015.03 1019.95 1024.84 1030.61 1033.67 6999.00
  14  6999.00 1005.53 1008.24 1012.12 1016.13 1020.54 1025.81 1032.08 1037.06 6999.00
  15  6999.00 6999.00 1011.72 1014.07 1017.08 1019.83 6999.00 6999.00 6999.00 6999.00

 HEAD WILL BE SAVED ON UNIT   58 AT END OF TIME STEP   15, STRESS PERIOD    8
1
  VOLUMETRIC BUDGET FOR ENTIRE MODEL AT END OF TIME STEP   15, STRESS PERIOD   8
  ------------------------------------------------------------------------------

     CUMULATIVE VOLUMES      L**3       RATES FOR THIS TIME STEP      L**3/T
     ------------------                 ------------------------

           IN:                                      IN:
           ---                                      ---
             STORAGE =   412339584.0000               STORAGE =           6.5185
       CONSTANT HEAD =           0.0000         CONSTANT HEAD =           0.0000
               WELLS =           0.0000                 WELLS =           0.0000
     HEAD DEP BOUNDS =     6325709.0000       HEAD DEP BOUNDS =           0.3019
      STREAM LEAKAGE =   322283296.0000        STREAM LEAKAGE =          15.5560
        UZF RECHARGE =     7880964.5000          UZF RECHARGE =           0.0000
               GW ET =           0.0000                 GW ET =           0.0000
     SURFACE LEAKAGE =           0.0000       SURFACE LEAKAGE =           0.0000

            TOTAL IN =   748829568.0000              TOTAL IN =          22.3764

          OUT:                                     OUT:
          ----                                     ----
             STORAGE =    98902384.0000               STORAGE =          14.1375
       CONSTANT HEAD =           0.0000         CONSTANT HEAD =           0.0000
               WELLS =   473040000.0000                 WELLS =           0.0000
     HEAD DEP BOUNDS =     5984946.0000       HEAD DEP BOUNDS =           0.2781
      STREAM LEAKAGE =    54154184.0000        STREAM LEAKAGE =           1.8135
        UZF RECHARGE =           0.0000          UZF RECHARGE =           0.0000
               GW ET =   116762000.0000                 GW ET =           6.1469
     SURFACE LEAKAGE =           0.0000       SURFACE LEAKAGE =           0.0000

           TOTAL OUT =   748843520.0000             TOTAL OUT =          22.3760

            IN - OUT =      -13952.0000              IN - OUT =       3.9291E-04

 PERCENT DISCREPANCY =          -0.00     PERCENT DISCREPANCY =           0.00






         TIME SUMMARY AT END OF TIME STEP   15 IN STRESS PERIOD    8
                    SECONDS     MINUTES      HOURS       DAYS        YEARS
                    -----------------------------------------------------------
   TIME STEP LENGTH 3.14103E+05  5235.0      87.251      3.6354     9.95332E-03
 STRESS PERIOD TIME 2.62800E+06  43800.      730.00      30.417     8.32763E-02
         TOTAL TIME 2.10240E+07 3.50400E+05  5840.0      243.33     0.66621    
1
1
                            STRESS PERIOD NO.    9, LENGTH =   2628000.    
                            -----------------------------------------------

                              NUMBER OF TIME STEPS =    15

                               MULTIPLIER FOR DELT =     1.100

                            INITIAL TIME STEP SIZE =   82713.07    

 WELL NO.  LAYER   ROW   COL   STRESS RATE         
 --------------------------------------------------
      1      1      6      4      -1.000    
      2      1      6      5      -1.000    
      3      1      7      4      -1.000    
      4      1      7      5      -1.000    
      5      1      8      4      -1.000    
      6      1      8      5      -1.000    
      7      1      9      4      -1.000    
      8      1      9      5      -1.000    
      9      1     10      4      -1.000    
     10      1     10      5      -1.000    

     10 WELLS

 REUSING NON-PARAMETER GHB CELLS FROM LAST STRESS PERIOD

      2 GHB CELLS

 REUSING STREAM SEGMENT DATA FROM LAST STRESS PERIOD



            AREAL INFILTRATION RATE
 READING ON UNIT   19 WITH FORMAT: (10F4.0)            

            1           2           3           4           5           6           7           8           9          10
 ........................................................................................................................
   1   3.0000E-09  6.0000E-09   0.000       0.000       0.000       0.000       0.000       0.000       0.000       0.000    
   2   6.0000E-09  3.0000E-09  6.0000E-09   0.000       0.000      2.4000E-08  2.4000E-08  1.5000E-08   0.000       0.000    
   3    0.000      1.5000E-08  3.0000E-09  3.0000E-09  2.4000E-08  2.4000E-08  1.5000E-08  1.5000E-08   0.000       0.000    
   4   2.4000E-08  1.5000E-08  3.0000E-09  3.0000E-09  3.0000E-09  3.0000E-09  3.0000E-09  3.0000E-09  6.0000E-09   0.000    
   5   2.4000E-08  1.5000E-08  3.0000E-09  3.0000E-09  3.0000E-09  3.0000E-09  3.0000E-09  3.0000E-09  3.0000E-09  3.0000E-09
   6   2.4000E-08  1.5000E-08  1.5000E-08  6.0000E-09  6.0000E-09  3.0000E-09  3.0000E-09  3.0000E-09  3.0000E-09  1.5000E-08
   7   2.4000E-08  1.5000E-08  1.5000E-08  6.0000E-09  6.0000E-09  3.0000E-09  3.0000E-09  6.0000E-09  6.0000E-09   0.000    
   8    0.000      1.5000E-08  1.5000E-08  6.0000E-09  6.0000E-09  3.0000E-09  3.0000E-09  6.0000E-09  1.5000E-08   0.000    
   9    0.000      1.5000E-08  1.5000E-08  6.0000E-09  6.0000E-09  3.0000E-09  3.0000E-09  6.0000E-09  1.5000E-08   0.000    
  10    0.000      1.5000E-08  1.5000E-08  6.0000E-09  6.0000E-09  3.0000E-09  3.0000E-09  6.0000E-09  1.5000E-08  2.4000E-08
  11    0.000      3.0000E-09  3.0000E-09  3.0000E-09  3.0000E-09  3.0000E-09  3.0000E-09  6.0000E-09  1.5000E-08   0.000    
  12   3.0000E-09  3.0000E-09  3.0000E-09  3.0000E-09  3.0000E-09  3.0000E-09  3.0000E-09  3.0000E-09  6.0000E-09   0.000    
  13   3.0000E-09  3.0000E-09  6.0000E-09  6.0000E-09  6.0000E-09  6.0000E-09  6.0000E-09  3.0000E-09  3.0000E-09   0.000    
  14    0.000      6.0000E-09  1.5000E-08  1.5000E-08  1.5000E-08  1.5000E-08  1.5000E-08  6.0000E-09  3.0000E-09   0.000    
  15    0.000       0.000      2.4000E-08  2.4000E-08  2.4000E-08  2.4000E-08   0.000       0.000       0.000       0.000    

USING ET RATE FROM PREVIOUS STRESS PERIOD. CURRENT PERIOD IS:       9

 USING ET EXTINCTION DEPTH FROM PREVIOUS STRESS PERIOD. CURRENT PERIOD IS:       9

 USING EXTINCTION WATER CONTENT FROM PREVIOUS STRESS PERIOD. CURRENT PERIOD IS:       9
 
 SOLVING FOR HEAD 
                                                   Max.-Head-Change                         Max.-Flux-Residual
  Residual-Control   Outer-Iter.   Inner-Iter.     Column Row Layer    Maximum-Head-Change  Column Row Layer    Maximum-Flux-Residual          L2-NORM 
          0                 1           2             4    8     1       0.8671684653E-02       4    8    1         0.4842296990E+00      0.1506631532E+01
          0                 2           2             4    8     1      -0.8592867370E-03       4    8    1        -0.4842308352E-01      0.1501559032E+00
          0                 3           1             4    8     1       0.7663339288E-04       4    8    1         0.4358076952E-02      0.1346607044E-01

    ------------------------------------------------
       NWT REQUIRED            3 OUTER ITERATIONS 
       AND A TOTAL OF          5 INNER ITERATIONS.
    ------------------------------------------------

 NO OUTPUT CONTROL FOR STRESS PERIOD    9   TIME STEP    1
 
 SOLVING FOR HEAD 
                                                   Max.-Head-Change                         Max.-Flux-Residual
  Residual-Control   Outer-Iter.   Inner-Iter.     Column Row Layer    Maximum-Head-Change  Column Row Layer    Maximum-Flux-Residual          L2-NORM 
          0                 1           2             4    8     1       0.9392099926E-02       4    8    1         0.4774011139E+00      0.1470379382E+01
          0                 2           2             4    8     1      -0.9306737805E-03       4    8    1        -0.4774024328E-01      0.1465400127E+00
          0                 3           1             4    8     1       0.8299986927E-04       4    8    1         0.4296621139E-02      0.1314166050E-01

    ------------------------------------------------
       NWT REQUIRED            3 OUTER ITERATIONS 
       AND A TOTAL OF          5 INNER ITERATIONS.
    ------------------------------------------------

 NO OUTPUT CONTROL FOR STRESS PERIOD    9   TIME STEP    2
 
 SOLVING FOR HEAD 
                                                   Max.-Head-Change                         Max.-Flux-Residual
  Residual-Control   Outer-Iter.   Inner-Iter.     Column Row Layer    Maximum-Head-Change  Column Row Layer    Maximum-Flux-Residual          L2-NORM 
          0                 1           2             4    8     1       0.1015814117E-01       4    8    1         0.4700576189E+00      0.1433900754E+01
          0                 2           2             4    8     1      -0.1006582058E-02       4    8    1        -0.4700591478E-01      0.1429058886E+00
          0                 3           1             4    8     1       0.8976955995E-04       4    8    1         0.4230531363E-02      0.1281629217E-01

    ------------------------------------------------
       NWT REQUIRED            3 OUTER ITERATIONS 
       AND A TOTAL OF          5 INNER ITERATIONS.
    ------------------------------------------------

 NO OUTPUT CONTROL FOR STRESS PERIOD    9   TIME STEP    3
 
 SOLVING FOR HEAD 
                                                   Max.-Head-Change                         Max.-Flux-Residual
  Residual-Control   Outer-Iter.   Inner-Iter.     Column Row Layer    Maximum-Head-Change  Column Row Layer    Maximum-Flux-Residual          L2-NORM 
          0                 1           2             4    8     1       0.1097019630E-01       4    8    1         0.4621811358E+00      0.1397365417E+01
          0                 2           2             4    8     1      -0.1087050033E-02       4    8    1        -0.4621829039E-01      0.1392713025E+00
          0                 3           1             4    8     1       0.9694589404E-04       4    8    1         0.4159644898E-02      0.1249074115E-01

    ------------------------------------------------
       NWT REQUIRED            3 OUTER ITERATIONS 
       AND A TOTAL OF          5 INNER ITERATIONS.
    ------------------------------------------------

 NO OUTPUT CONTROL FOR STRESS PERIOD    9   TIME STEP    4
 
 SOLVING FOR HEAD 
                                                   Max.-Head-Change                         Max.-Flux-Residual
  Residual-Control   Outer-Iter.   Inner-Iter.     Column Row Layer    Maximum-Head-Change  Column Row Layer    Maximum-Flux-Residual          L2-NORM 
          0                 1           2             4    8     1       0.1182797046E-01       4    8    1         0.4537472095E+00      0.1360961682E+01
          0                 2           2             4    8     1      -0.1172048524E-02       4    8    1        -0.4537492492E-01      0.1356540566E+00
          0                 3           1             4    8     1       0.1045262708E-03       4    8    1         0.4083741747E-02      0.1216799363E-01
          0                 4           1             4    8     1      -0.8296583049E-05       4    8    1        -0.3271078181E-03      0.9712755925E-03

    ------------------------------------------------
       NWT REQUIRED            4 OUTER ITERATIONS 
       AND A TOTAL OF          6 INNER ITERATIONS.
    ------------------------------------------------

 OUTPUT CONTROL FOR STRESS PERIOD    9   TIME STEP    5
    PRINT BUDGET
    SAVE BUDGET

            WELLS   PERIOD    9   STEP   5
 WELL      1   LAYER   1   ROW     6   COL     4   RATE    -1.00000    
 WELL      2   LAYER   1   ROW     6   COL     5   RATE    -1.00000    
 WELL      3   LAYER   1   ROW     7   COL     4   RATE    -1.00000    
 WELL      4   LAYER   1   ROW     7   COL     5   RATE    -1.00000    
 WELL      5   LAYER   1   ROW     8   COL     4   RATE    -1.00000    
 WELL      6   LAYER   1   ROW     8   COL     5   RATE    -1.00000    
 WELL      7   LAYER   1   ROW     9   COL     4   RATE    -1.00000    
 WELL      8   LAYER   1   ROW     9   COL     5   RATE    -1.00000    
 WELL      9   LAYER   1   ROW    10   COL     4   RATE    -1.00000    
 WELL     10   LAYER   1   ROW    10   COL     5   RATE    -1.00000    

  HEAD DEP BOUNDS   PERIOD    9   STEP     5
 BOUNDARY      1   LAYER   1   ROW    13   COL     1   RATE   -0.277389    
 BOUNDARY      2   LAYER   1   ROW    14   COL     9   RATE    0.301939    



 STREAM LISTING     PERIOD      9   STEP        5

 LAYER ROW COL. STREAM  RCH.  FLOW INTO     FLOW TO   FLOW OUT OF   OVRLND.     DIRECT     STREAM       STREAM     STREAM     STREAM   STREAMBED  STREAMBED
                SEG.NO.  NO.  STRM. RCH.    AQUIFER    STRM. RCH.    RUNOFF     PRECIP       ET          HEAD       DEPTH      WIDTH   CONDCTNC.   GRADIENT

   1    1    1     1     1    2.5000E+01  2.4557E-01   2.4935E+01  1.806E-01  0.000E+00  0.000E+00  1.09423E+03  1.180E+00  1.306E+01  5.875E-02  1.393E+00
   1    2    2     1     2    2.4935E+01  3.8140E-01   2.4835E+01  2.809E-01  0.000E+00  0.000E+00  1.08924E+03  1.178E+00  1.304E+01  9.128E-02  1.393E+00
   1    3    3     1     3    2.4835E+01  3.2634E-01   2.4749E+01  2.408E-01  0.000E+00  0.000E+00  1.08360E+03  1.177E+00  1.302E+01  7.813E-02  1.392E+00
   1    3    4     1     4    2.4749E+01  3.0139E-01   2.4670E+01  2.227E-01  0.000E+00  0.000E+00  1.07858E+03  1.176E+00  1.300E+01  7.218E-02  1.392E+00
   1    4    5     2     1    1.4670E+01  0.0000E+00   1.4817E+01  1.472E-01  0.000E+00  0.000E+00  1.07281E+03  8.797E-01  1.200E+01  0.000E+00  1.293E+00
   1    5    6     2     2    1.4817E+01  0.0000E+00   1.4931E+01  1.132E-01  0.000E+00  0.000E+00  1.06739E+03  8.843E-01  1.200E+01  0.000E+00  1.295E+00
   1    6    6     2     3    1.4931E+01  0.0000E+00   1.5044E+01  1.132E-01  0.000E+00  0.000E+00  1.06268E+03  8.883E-01  1.200E+01  0.000E+00  1.296E+00
   1    7    6     2     4    1.5044E+01  0.0000E+00   1.5157E+01  1.132E-01  0.000E+00  0.000E+00  1.05797E+03  8.924E-01  1.200E+01  0.000E+00  1.297E+00
   1    8    6     2     5    1.5157E+01  0.0000E+00   1.5270E+01  1.132E-01  0.000E+00  0.000E+00  1.05325E+03  8.964E-01  1.200E+01  0.000E+00  1.299E+00
   1    3    5     3     1    1.0000E+01  2.8252E-01   1.0367E+01  6.500E-01  0.000E+00  0.000E+00  1.07555E+03  1.909E+00  9.636E+00  7.227E-02  1.955E+00
   1    3    6     3     2    1.0367E+01  2.4905E-01   1.0768E+01  6.500E-01  0.000E+00  0.000E+00  1.07264E+03  1.727E+00  8.909E+00  6.682E-02  1.864E+00
   1    3    7     3     3    1.0768E+01  1.9718E-01   1.1156E+01  5.850E-01  0.000E+00  0.000E+00  1.06987E+03  1.555E+00  8.218E+00  5.547E-02  1.777E+00
   1    4    8     3     4    1.1156E+01  2.2567E-01   1.1711E+01  7.800E-01  0.000E+00  0.000E+00  1.06682E+03  1.364E+00  7.455E+00  6.709E-02  1.682E+00
   1    5    8     3     5    1.1711E+01  1.5790E-01   1.2203E+01  6.500E-01  0.000E+00  0.000E+00  1.06362E+03  1.164E+00  6.655E+00  4.991E-02  1.582E+00
   1    6    8     3     6    1.2203E+01  5.5980E-02   1.2407E+01  2.600E-01  0.000E+00  0.000E+00  1.06158E+03  1.036E+00  6.145E+00  1.844E-02  1.518E+00
   1    5   10     4     1    1.0000E+01  0.0000E+00   1.0125E+01  1.250E-01  0.000E+00  0.000E+00  1.07837E+03  6.409E-01  1.000E+01  0.000E+00  1.214E+00
   1    5    9     4     2    1.0125E+01  0.0000E+00   1.0375E+01  2.500E-01  0.000E+00  0.000E+00  1.07156E+03  6.480E-01  1.000E+01  0.000E+00  1.216E+00
   1    6    8     4     3    1.0375E+01  0.0000E+00   1.0550E+01  1.750E-01  0.000E+00  0.000E+00  1.06384E+03  6.561E-01  1.000E+01  0.000E+00  1.219E+00
   1    6    8     5     1    2.2957E+01  3.8743E-01   2.2789E+01  2.200E-01  0.000E+00  0.000E+00  1.05890E+03  8.972E-01  2.485E+01  9.941E-02  1.299E+00
   1    7    7     5     2    2.2789E+01  4.8158E-01   2.2583E+01  2.750E-01  0.000E+00  0.000E+00  1.05439E+03  8.946E-01  2.473E+01  1.237E-01  1.298E+00
   1    8    7     5     3    2.2583E+01  3.3534E-01   2.2440E+01  1.925E-01  0.000E+00  0.000E+00  1.05014E+03  8.922E-01  2.462E+01  8.616E-02  1.297E+00
   1    8    6     5     4    2.2440E+01  2.3865E-01   2.2339E+01  1.375E-01  0.000E+00  0.000E+00  1.04714E+03  8.905E-01  2.454E+01  6.134E-02  1.297E+00
   1    9    6     6     1    3.7609E+01  0.0000E+00   3.8052E+01  4.432E-01  0.000E+00  0.000E+00  1.04429E+03  1.566E+00  1.200E+01  0.000E+00  1.522E+00
   1   10    7     6     2    3.8052E+01  0.0000E+00   3.8495E+01  4.432E-01  0.000E+00  0.000E+00  1.03976E+03  1.577E+00  1.200E+01  0.000E+00  1.526E+00
   1   11    7     6     3    3.8495E+01  0.0000E+00   3.8939E+01  4.432E-01  0.000E+00  0.000E+00  1.03522E+03  1.587E+00  1.200E+01  0.000E+00  1.529E+00
   1   12    7     6     4    3.8939E+01  0.0000E+00   3.9382E+01  4.432E-01  0.000E+00  0.000E+00  1.03069E+03  1.598E+00  1.200E+01  0.000E+00  1.533E+00
   1   13    7     6     5    3.9382E+01  0.0000E+00   3.9559E+01  1.773E-01  0.000E+00  0.000E+00  1.02752E+03  1.606E+00  1.200E+01  0.000E+00  8.961E-01
   1   14    9     7     1    1.5000E+02  1.5743E+00   1.4884E+02  4.113E-01  0.000E+00  0.000E+00  1.03987E+03  2.288E+00  5.530E+01  5.593E-01  9.382E-01
   1   13    8     7     2    1.4884E+02  2.5679E+00   1.4672E+02  4.524E-01  0.000E+00  0.000E+00  1.03478E+03  2.279E+00  5.526E+01  6.148E-01  1.392E+00
   1   13    7     7     3    1.4672E+02  2.7135E+00   1.4442E+02  4.113E-01  0.000E+00  0.000E+00  1.02969E+03  2.268E+00  5.520E+01  5.583E-01  1.620E+00
   1   13    6     8     1    1.8398E+02  2.2383E+00   1.8403E+02  2.290E+00  0.000E+00  0.000E+00  1.02492E+03  3.041E+00  4.410E+01  4.494E-01  1.660E+00
   1   13    5     8     2    1.8403E+02  1.6440E+00   1.8468E+02  2.290E+00  0.000E+00  0.000E+00  1.01867E+03  3.043E+00  4.413E+01  4.497E-01  1.219E+00
   1   13    4     8     3    1.8468E+02  6.6294E-01   1.8630E+02  2.290E+00  0.000E+00  0.000E+00  1.01243E+03  3.050E+00  4.423E+01  4.507E-01  4.903E-01
   1   13    3     8     4    1.8630E+02 -4.8434E-01   1.8908E+02  2.290E+00  0.000E+00  0.000E+00  1.00619E+03  3.064E+00  4.443E+01  4.527E+00 -3.566E-02
   1   13    2     8     5    1.8908E+02 -1.0832E+00   1.9245E+02  2.290E+00  0.000E+00  0.000E+00  9.99958E+02  3.083E+00  4.470E+01  4.555E+00 -7.927E-02
   1   13    1     8     6    1.9245E+02 -8.9339E-01   1.9472E+02  1.374E+00  0.000E+00  0.000E+00  9.94975E+02  3.100E+00  4.494E+01  2.748E+00 -1.084E-01



 UBDSV3 SAVING "     NETRECHARGE" ON UNIT 100 AT TIME STEP     5, STRESS PERIOD   9
 UBDSV3 SAVING "    NETDISCHARGE" ON UNIT 101 AT TIME STEP     5, STRESS PERIOD   9
 UBDSV3 SAVING "           GW ET" ON UNIT  61 AT TIME STEP     5, STRESS PERIOD   9
 UBDSV3 SAVING "    UZF RECHARGE" ON UNIT  61 AT TIME STEP     5, STRESS PERIOD   9
 UBDSV3 SAVING " SURFACE LEAKAGE" ON UNIT  61 AT TIME STEP     5, STRESS PERIOD   9
 UBDSV3 SAVING "       HORT+DUNN" ON UNIT  61 AT TIME STEP     5, STRESS PERIOD   9
 UBDSV3 SAVING "  STORAGE CHANGE" ON UNIT  61 AT TIME STEP     5, STRESS PERIOD   9


UNSATURATED ZONE PACKAGE VOLUMETRIC BUDGET FOR  TIME STEP     5 STRESS PERIOD    9
  ------------------------------------------------------------------------------



     CUMULATIVE VOLUMES      L**3       RATES FOR THIS TIME STEP      L**3/T
     ------------------                 ------------------------

           IN:                                      IN:
           ---                                      ---
        INFILTRATION =    62434011.8105          INFILTRATION =           2.9000

          OUT:                                     OUT:
          ----                                     ----
              UZF ET =    17668954.0780                UZF ET =           1.1723
        UZF RECHARGE =     7880960.6654          UZF RECHARGE =       0.0000E+00

            IN - OUT =    36884097.0671              IN - OUT =           1.7277

          STORAGE:                                 STORAGE:
          --------                                 --------
      STORAGE CHANGE =    36884095.6677        STORAGE CHANGE =           1.7277

 PERCENT DISCREPANCY IS DIFFERENCE BETWEEN IN-OUT MINUS CHANGE IN STORAGE
 DIVIDED BY THE AVERAGE OF IN AND OUT TIMES 100

 PERCENT DISCREPANCY =           0.00     PERCENT DISCREPANCY =           0.00






1
  VOLUMETRIC BUDGET FOR ENTIRE MODEL AT END OF TIME STEP    5, STRESS PERIOD   9
  ------------------------------------------------------------------------------

     CUMULATIVE VOLUMES      L**3       RATES FOR THIS TIME STEP      L**3/T
     ------------------                 ------------------------

           IN:                                      IN:
           ---                                      ---
             STORAGE =   416111008.0000               STORAGE =           7.1794
       CONSTANT HEAD =           0.0000         CONSTANT HEAD =           0.0000
               WELLS =           0.0000                 WELLS =           0.0000
     HEAD DEP BOUNDS =     6478170.5000       HEAD DEP BOUNDS =           0.3019
      STREAM LEAKAGE =   329986656.0000        STREAM LEAKAGE =          15.2670
        UZF RECHARGE =     7880964.5000          UZF RECHARGE =           0.0000
               GW ET =           0.0000                 GW ET =           0.0000
     SURFACE LEAKAGE =           0.0000       SURFACE LEAKAGE =           0.0000

            TOTAL IN =   760456832.0000              TOTAL IN =          22.7483

          OUT:                                     OUT:
          ----                                     ----
             STORAGE =   100939464.0000               STORAGE =           3.8629
       CONSTANT HEAD =           0.0000         CONSTANT HEAD =           0.0000
               WELLS =   478089728.0000                 WELLS =          10.0000
     HEAD DEP BOUNDS =     6125156.5000       HEAD DEP BOUNDS =           0.2774
      STREAM LEAKAGE =    55449328.0000        STREAM LEAKAGE =           2.4610
        UZF RECHARGE =           0.0000          UZF RECHARGE =           0.0000
               GW ET =   119866168.0000                 GW ET =           6.1472
     SURFACE LEAKAGE =           0.0000       SURFACE LEAKAGE =           0.0000

           TOTAL OUT =   760469888.0000             TOTAL OUT =          22.7484

            IN - OUT =      -13056.0000              IN - OUT =      -1.6403E-04

 PERCENT DISCREPANCY =          -0.00     PERCENT DISCREPANCY =          -0.00






         TIME SUMMARY AT END OF TIME STEP    5 IN STRESS PERIOD    9
                    SECONDS     MINUTES      HOURS       DAYS        YEARS
                    -----------------------------------------------------------
   TIME STEP LENGTH 1.21100E+05  2018.3      33.639      1.4016     3.83743E-03
 STRESS PERIOD TIME 5.04972E+05  8416.2      140.27      5.8446     1.60016E-02
         TOTAL TIME 2.15290E+07 3.58816E+05  5980.3      249.18     0.68221    
1
 
 SOLVING FOR HEAD 
                                                   Max.-Head-Change                         Max.-Flux-Residual
  Residual-Control   Outer-Iter.   Inner-Iter.     Column Row Layer    Maximum-Head-Change  Column Row Layer    Maximum-Flux-Residual          L2-NORM 
          0                 1           2             4    8     1       0.1273121927E-01       4    8    1         0.4447594278E+00      0.1324851558E+01
          0                 2           2             4    8     1      -0.1261553349E-02       4    8    1        -0.4447617734E-01      0.1320708258E+00
          0                 3           2             4    8     1       0.1125085316E-03       4    8    1         0.4002854171E-02      0.1184816219E-01
          0                 4           1             4    8     1      -0.8930160277E-05       4    8    1        -0.3206287208E-03      0.9456569283E-03

    ------------------------------------------------
       NWT REQUIRED            4 OUTER ITERATIONS 
       AND A TOTAL OF          7 INNER ITERATIONS.
    ------------------------------------------------

 NO OUTPUT CONTROL FOR STRESS PERIOD    9   TIME STEP    6
 
 SOLVING FOR HEAD 
                                                   Max.-Head-Change                         Max.-Flux-Residual
  Residual-Control   Outer-Iter.   Inner-Iter.     Column Row Layer    Maximum-Head-Change  Column Row Layer    Maximum-Flux-Residual          L2-NORM 
          0                 1           2             4    8     1       0.1367865338E-01       4    8    1         0.4352055433E+00      0.1289357346E+01
          0                 2           2             4    8     1      -0.1355436783E-02       4    8    1        -0.4352082302E-01      0.1285511864E+00
          0                 3           2             4    8     1       0.1208812847E-03       4    8    1         0.3916871912E-02      0.1153426208E-01
          0                 4           1             4    8     1      -0.9594732166E-05       4    8    1        -0.3137415376E-03      0.9206844778E-03

    ------------------------------------------------
       NWT REQUIRED            4 OUTER ITERATIONS 
       AND A TOTAL OF          7 INNER ITERATIONS.
    ------------------------------------------------

 NO OUTPUT CONTROL FOR STRESS PERIOD    9   TIME STEP    7
 
 SOLVING FOR HEAD 
                                                   Max.-Head-Change                         Max.-Flux-Residual
  Residual-Control   Outer-Iter.   Inner-Iter.     Column Row Layer    Maximum-Head-Change  Column Row Layer    Maximum-Flux-Residual          L2-NORM 
          0                 1           2             4    8     1       0.1466847178E-01       4    8    1         0.4250837167E+00      0.1254470499E+01
          0                 2           2             4    8     1      -0.1453520417E-02       4    8    1        -0.4250867816E-01      0.1251016942E+00
          0                 3           2             4    8     1       0.1296286206E-03       4    8    1         0.3825778497E-02      0.1122663597E-01
          0                 4           1             4    8     1      -0.1028903703E-04       4    8    1        -0.3064449672E-03      0.8966615787E-03

    ------------------------------------------------
       NWT REQUIRED            4 OUTER ITERATIONS 
       AND A TOTAL OF          7 INNER ITERATIONS.
    ------------------------------------------------

 NO OUTPUT CONTROL FOR STRESS PERIOD    9   TIME STEP    8
 
 SOLVING FOR HEAD 
                                                   Max.-Head-Change                         Max.-Flux-Residual
  Residual-Control   Outer-Iter.   Inner-Iter.     Column Row Layer    Maximum-Head-Change  Column Row Layer    Maximum-Flux-Residual          L2-NORM 
          0                 1           2             4    8     1       0.1569830353E-01       4    8    1         0.4144010038E+00      0.1220414773E+01
          0                 2           2             4    8     1      -0.1555569356E-02       4    8    1        -0.4144044825E-01      0.1217828653E+00
          0                 3           2             4    8     1       0.1387295887E-03       4    8    1         0.3729637391E-02      0.1093099337E-01
          0                 4           1             4    8     1      -0.1101140969E-04       4    8    1        -0.2987440603E-03      0.8733775436E-03

    ------------------------------------------------
       NWT REQUIRED            4 OUTER ITERATIONS 
       AND A TOTAL OF          7 INNER ITERATIONS.
    ------------------------------------------------

 NO OUTPUT CONTROL FOR STRESS PERIOD    9   TIME STEP    9
 
 SOLVING FOR HEAD 
                                                   Max.-Head-Change                         Max.-Flux-Residual
  Residual-Control   Outer-Iter.   Inner-Iter.     Column Row Layer    Maximum-Head-Change  Column Row Layer    Maximum-Flux-Residual          L2-NORM 
          0                 1           2             4    8     1       0.1676546018E-01       4    8    1         0.4031793287E+00      0.1186898107E+01
          0                 2           2             4    8     1      -0.1661317257E-02       4    8    1        -0.4031832559E-01      0.1184703825E+00
          0                 3           2             4    8     1       0.1481604356E-03       4    8    1         0.3628645894E-02      0.1063640381E-01
          0                 4           1             4    8     1      -0.1175996582E-04       4    8    1        -0.2906546397E-03      0.8499583386E-03

    ------------------------------------------------
       NWT REQUIRED            4 OUTER ITERATIONS 
       AND A TOTAL OF          7 INNER ITERATIONS.
    ------------------------------------------------

 OUTPUT CONTROL FOR STRESS PERIOD    9   TIME STEP   10
    PRINT BUDGET
    SAVE BUDGET

            WELLS   PERIOD    9   STEP  10
 WELL      1   LAYER   1   ROW     6   COL     4   RATE    -1.00000    
 WELL      2   LAYER   1   ROW     6   COL     5   RATE    -1.00000    
 WELL      3   LAYER   1   ROW     7   COL     4   RATE    -1.00000    
 WELL      4   LAYER   1   ROW     7   COL     5   RATE    -1.00000    
 WELL      5   LAYER   1   ROW     8   COL     4   RATE    -1.00000    
 WELL      6   LAYER   1   ROW     8   COL     5   RATE    -1.00000    
 WELL      7   LAYER   1   ROW     9   COL     4   RATE    -1.00000    
 WELL      8   LAYER   1   ROW     9   COL     5   RATE    -1.00000    
 WELL      9   LAYER   1   ROW    10   COL     4   RATE    -1.00000    
 WELL     10   LAYER   1   ROW    10   COL     5   RATE    -1.00000    

  HEAD DEP BOUNDS   PERIOD    9   STEP    10
 BOUNDARY      1   LAYER   1   ROW    13   COL     1   RATE   -0.276563    
 BOUNDARY      2   LAYER   1   ROW    14   COL     9   RATE    0.302011    



 STREAM LISTING     PERIOD      9   STEP       10

 LAYER ROW COL. STREAM  RCH.  FLOW INTO     FLOW TO   FLOW OUT OF   OVRLND.     DIRECT     STREAM       STREAM     STREAM     STREAM   STREAMBED  STREAMBED
                SEG.NO.  NO.  STRM. RCH.    AQUIFER    STRM. RCH.    RUNOFF     PRECIP       ET          HEAD       DEPTH      WIDTH   CONDCTNC.   GRADIENT

   1    1    1     1     1    2.5000E+01  2.4557E-01   2.4935E+01  1.806E-01  0.000E+00  0.000E+00  1.09423E+03  1.180E+00  1.306E+01  5.875E-02  1.393E+00
   1    2    2     1     2    2.4935E+01  3.8140E-01   2.4835E+01  2.809E-01  0.000E+00  0.000E+00  1.08924E+03  1.178E+00  1.304E+01  9.128E-02  1.393E+00
   1    3    3     1     3    2.4835E+01  3.2634E-01   2.4749E+01  2.408E-01  0.000E+00  0.000E+00  1.08360E+03  1.177E+00  1.302E+01  7.813E-02  1.392E+00
   1    3    4     1     4    2.4749E+01  3.0139E-01   2.4670E+01  2.227E-01  0.000E+00  0.000E+00  1.07858E+03  1.176E+00  1.300E+01  7.218E-02  1.392E+00
   1    4    5     2     1    1.4670E+01  0.0000E+00   1.4817E+01  1.472E-01  0.000E+00  0.000E+00  1.07281E+03  8.797E-01  1.200E+01  0.000E+00  1.293E+00
   1    5    6     2     2    1.4817E+01  0.0000E+00   1.4931E+01  1.132E-01  0.000E+00  0.000E+00  1.06739E+03  8.843E-01  1.200E+01  0.000E+00  1.295E+00
   1    6    6     2     3    1.4931E+01  0.0000E+00   1.5044E+01  1.132E-01  0.000E+00  0.000E+00  1.06268E+03  8.883E-01  1.200E+01  0.000E+00  1.296E+00
   1    7    6     2     4    1.5044E+01  0.0000E+00   1.5157E+01  1.132E-01  0.000E+00  0.000E+00  1.05797E+03  8.924E-01  1.200E+01  0.000E+00  1.297E+00
   1    8    6     2     5    1.5157E+01  0.0000E+00   1.5270E+01  1.132E-01  0.000E+00  0.000E+00  1.05325E+03  8.964E-01  1.200E+01  0.000E+00  1.299E+00
   1    3    5     3     1    1.0000E+01  2.8252E-01   1.0367E+01  6.500E-01  0.000E+00  0.000E+00  1.07555E+03  1.909E+00  9.636E+00  7.227E-02  1.955E+00
   1    3    6     3     2    1.0367E+01  2.4905E-01   1.0768E+01  6.500E-01  0.000E+00  0.000E+00  1.07264E+03  1.727E+00  8.909E+00  6.682E-02  1.864E+00
   1    3    7     3     3    1.0768E+01  1.9718E-01   1.1156E+01  5.850E-01  0.000E+00  0.000E+00  1.06987E+03  1.555E+00  8.218E+00  5.547E-02  1.777E+00
   1    4    8     3     4    1.1156E+01  2.2567E-01   1.1711E+01  7.800E-01  0.000E+00  0.000E+00  1.06682E+03  1.364E+00  7.455E+00  6.709E-02  1.682E+00
   1    5    8     3     5    1.1711E+01  1.5790E-01   1.2203E+01  6.500E-01  0.000E+00  0.000E+00  1.06362E+03  1.164E+00  6.655E+00  4.991E-02  1.582E+00
   1    6    8     3     6    1.2203E+01  5.5980E-02   1.2407E+01  2.600E-01  0.000E+00  0.000E+00  1.06158E+03  1.036E+00  6.145E+00  1.844E-02  1.518E+00
   1    5   10     4     1    1.0000E+01  0.0000E+00   1.0125E+01  1.250E-01  0.000E+00  0.000E+00  1.07837E+03  6.409E-01  1.000E+01  0.000E+00  1.214E+00
   1    5    9     4     2    1.0125E+01  0.0000E+00   1.0375E+01  2.500E-01  0.000E+00  0.000E+00  1.07156E+03  6.480E-01  1.000E+01  0.000E+00  1.216E+00
   1    6    8     4     3    1.0375E+01  0.0000E+00   1.0550E+01  1.750E-01  0.000E+00  0.000E+00  1.06384E+03  6.561E-01  1.000E+01  0.000E+00  1.219E+00
   1    6    8     5     1    2.2957E+01  3.8743E-01   2.2789E+01  2.200E-01  0.000E+00  0.000E+00  1.05890E+03  8.972E-01  2.485E+01  9.941E-02  1.299E+00
   1    7    7     5     2    2.2789E+01  4.8158E-01   2.2583E+01  2.750E-01  0.000E+00  0.000E+00  1.05439E+03  8.946E-01  2.473E+01  1.237E-01  1.298E+00
   1    8    7     5     3    2.2583E+01  3.3534E-01   2.2440E+01  1.925E-01  0.000E+00  0.000E+00  1.05014E+03  8.922E-01  2.462E+01  8.616E-02  1.297E+00
   1    8    6     5     4    2.2440E+01  2.3865E-01   2.2339E+01  1.375E-01  0.000E+00  0.000E+00  1.04714E+03  8.905E-01  2.454E+01  6.134E-02  1.297E+00
   1    9    6     6     1    3.7609E+01  0.0000E+00   3.8052E+01  4.432E-01  0.000E+00  0.000E+00  1.04429E+03  1.566E+00  1.200E+01  0.000E+00  1.522E+00
   1   10    7     6     2    3.8052E+01  0.0000E+00   3.8495E+01  4.432E-01  0.000E+00  0.000E+00  1.03976E+03  1.577E+00  1.200E+01  0.000E+00  1.526E+00
   1   11    7     6     3    3.8495E+01  0.0000E+00   3.8939E+01  4.432E-01  0.000E+00  0.000E+00  1.03522E+03  1.587E+00  1.200E+01  0.000E+00  1.529E+00
   1   12    7     6     4    3.8939E+01  0.0000E+00   3.9382E+01  4.432E-01  0.000E+00  0.000E+00  1.03069E+03  1.598E+00  1.200E+01  0.000E+00  1.533E+00
   1   13    7     6     5    3.9382E+01  0.0000E+00   3.9559E+01  1.773E-01  0.000E+00  0.000E+00  1.02752E+03  1.606E+00  1.200E+01  0.000E+00  9.011E-01
   1   14    9     7     1    1.5000E+02  1.5753E+00   1.4884E+02  4.113E-01  0.000E+00  0.000E+00  1.03987E+03  2.288E+00  5.530E+01  5.593E-01  9.388E-01
   1   13    8     7     2    1.4884E+02  2.5720E+00   1.4672E+02  4.524E-01  0.000E+00  0.000E+00  1.03478E+03  2.279E+00  5.526E+01  6.148E-01  1.395E+00
   1   13    7     7     3    1.4672E+02  2.7218E+00   1.4441E+02  4.113E-01  0.000E+00  0.000E+00  1.02969E+03  2.268E+00  5.520E+01  5.583E-01  1.625E+00
   1   13    6     8     1    1.8396E+02  2.2493E+00   1.8401E+02  2.290E+00  0.000E+00  0.000E+00  1.02492E+03  3.041E+00  4.410E+01  4.493E-01  1.669E+00
   1   13    5     8     2    1.8401E+02  1.6549E+00   1.8464E+02  2.290E+00  0.000E+00  0.000E+00  1.01867E+03  3.043E+00  4.413E+01  4.497E-01  1.227E+00
   1   13    4     8     3    1.8464E+02  6.7267E-01   1.8626E+02  2.290E+00  0.000E+00  0.000E+00  1.01243E+03  3.050E+00  4.423E+01  4.507E-01  4.975E-01
   1   13    3     8     4    1.8626E+02 -3.7956E-01   1.8893E+02  2.290E+00  0.000E+00  0.000E+00  1.00619E+03  3.063E+00  4.442E+01  4.526E+00 -2.795E-02
   1   13    2     8     5    1.8893E+02 -9.7628E-01   1.9219E+02  2.290E+00  0.000E+00  0.000E+00  9.99956E+02  3.081E+00  4.468E+01  4.553E+00 -7.148E-02
   1   13    1     8     6    1.9219E+02 -8.3791E-01   1.9441E+02  1.374E+00  0.000E+00  0.000E+00  9.94973E+02  3.098E+00  4.492E+01  2.746E+00 -1.017E-01



 UBDSV3 SAVING "     NETRECHARGE" ON UNIT 100 AT TIME STEP    10, STRESS PERIOD   9
 UBDSV3 SAVING "    NETDISCHARGE" ON UNIT 101 AT TIME STEP    10, STRESS PERIOD   9
 UBDSV3 SAVING "           GW ET" ON UNIT  61 AT TIME STEP    10, STRESS PERIOD   9
 UBDSV3 SAVING "    UZF RECHARGE" ON UNIT  61 AT TIME STEP    10, STRESS PERIOD   9
 UBDSV3 SAVING " SURFACE LEAKAGE" ON UNIT  61 AT TIME STEP    10, STRESS PERIOD   9
 UBDSV3 SAVING "       HORT+DUNN" ON UNIT  61 AT TIME STEP    10, STRESS PERIOD   9
 UBDSV3 SAVING "  STORAGE CHANGE" ON UNIT  61 AT TIME STEP    10, STRESS PERIOD   9


UNSATURATED ZONE PACKAGE VOLUMETRIC BUDGET FOR  TIME STEP    10 STRESS PERIOD    9
  ------------------------------------------------------------------------------



     CUMULATIVE VOLUMES      L**3       RATES FOR THIS TIME STEP      L**3/T
     ------------------                 ------------------------

           IN:                                      IN:
           ---                                      ---
        INFILTRATION =    64792471.0781          INFILTRATION =           2.9000

          OUT:                                     OUT:
          ----                                     ----
              UZF ET =    18620558.4044                UZF ET =           1.1603
        UZF RECHARGE =     7880960.6654          UZF RECHARGE =       0.0000E+00

            IN - OUT =    38290952.0083              IN - OUT =           1.7397

          STORAGE:                                 STORAGE:
          --------                                 --------
      STORAGE CHANGE =    38290950.5878        STORAGE CHANGE =           1.7397

 PERCENT DISCREPANCY IS DIFFERENCE BETWEEN IN-OUT MINUS CHANGE IN STORAGE
 DIVIDED BY THE AVERAGE OF IN AND OUT TIMES 100

 PERCENT DISCREPANCY =           0.00     PERCENT DISCREPANCY =           0.00






1
  VOLUMETRIC BUDGET FOR ENTIRE MODEL AT END OF TIME STEP   10, STRESS PERIOD   9
  ------------------------------------------------------------------------------

     CUMULATIVE VOLUMES      L**3       RATES FOR THIS TIME STEP      L**3/T
     ------------------                 ------------------------

           IN:                                      IN:
           ---                                      ---
             STORAGE =   421539104.0000               STORAGE =           6.4083
       CONSTANT HEAD =           0.0000         CONSTANT HEAD =           0.0000
               WELLS =           0.0000                 WELLS =           0.0000
     HEAD DEP BOUNDS =     6723761.0000       HEAD DEP BOUNDS =           0.3020
      STREAM LEAKAGE =   342425024.0000        STREAM LEAKAGE =          15.3120
        UZF RECHARGE =     7880964.5000          UZF RECHARGE =           0.0000
               GW ET =           0.0000                 GW ET =           0.0000
     SURFACE LEAKAGE =           0.0000       SURFACE LEAKAGE =           0.0000

            TOTAL IN =   778568832.0000              TOTAL IN =          22.0222

          OUT:                                     OUT:
          ----                                     ----
             STORAGE =   103834984.0000               STORAGE =           3.4060
       CONSTANT HEAD =           0.0000         CONSTANT HEAD =           0.0000
               WELLS =   486222336.0000                 WELLS =          10.0000
     HEAD DEP BOUNDS =     6350320.5000       HEAD DEP BOUNDS =           0.2766
      STREAM LEAKAGE =    57309360.0000        STREAM LEAKAGE =           2.1938
        UZF RECHARGE =           0.0000          UZF RECHARGE =           0.0000
               GW ET =   124865032.0000                 GW ET =           6.1460
     SURFACE LEAKAGE =           0.0000       SURFACE LEAKAGE =           0.0000

           TOTAL OUT =   778582080.0000             TOTAL OUT =          22.0224

            IN - OUT =      -13248.0000              IN - OUT =      -1.4687E-04

 PERCENT DISCREPANCY =          -0.00     PERCENT DISCREPANCY =          -0.00






         TIME SUMMARY AT END OF TIME STEP   10 IN STRESS PERIOD    9
                    SECONDS     MINUTES      HOURS       DAYS        YEARS
                    -----------------------------------------------------------
   TIME STEP LENGTH 1.95033E+05  3250.6      54.176      2.2573     6.18023E-03
 STRESS PERIOD TIME 1.31823E+06  21971.      366.18      15.257     4.17723E-02
         TOTAL TIME 2.23422E+07 3.72370E+05  6206.2      258.59     0.70798    
1
 
 SOLVING FOR HEAD 
                                                   Max.-Head-Change                         Max.-Flux-Residual
  Residual-Control   Outer-Iter.   Inner-Iter.     Column Row Layer    Maximum-Head-Change  Column Row Layer    Maximum-Flux-Residual          L2-NORM 
          0                 1           2             4    8     1       0.1786647405E-01       4    8    1         0.3914430393E+00      0.1154028339E+01
          0                 2           2             4    8     1      -0.1770420558E-02       4    8    1        -0.3914474468E-01      0.1152201670E+00
          0                 3           2             4    8     1       0.1578905210E-03       4    8    1         0.3523023124E-02      0.1034683671E-01
          0                 4           1             4    8     1      -0.1253227380E-04       4    8    1        -0.2821942530E-03      0.8270609526E-03

    ------------------------------------------------
       NWT REQUIRED            4 OUTER ITERATIONS 
       AND A TOTAL OF          7 INNER ITERATIONS.
    ------------------------------------------------

 NO OUTPUT CONTROL FOR STRESS PERIOD    9   TIME STEP   11
 
 SOLVING FOR HEAD 
                                                   Max.-Head-Change                         Max.-Flux-Residual
  Residual-Control   Outer-Iter.   Inner-Iter.     Column Row Layer    Maximum-Head-Change  Column Row Layer    Maximum-Flux-Residual          L2-NORM 
          0                 1           2             4    8     1       0.1899743634E-01       4    8    1         0.3792260016E+00      0.1121560514E+01
          0                 2           2             4    8     1      -0.1882491987E-02       4    8    1        -0.3792309167E-01      0.1120082354E+00
          0                 3           2             4    8     1       0.1678853078E-03       4    8    1         0.3413073847E-02      0.1006118760E-01
          0                 4           1             4    8     1      -0.1332559256E-04       4    8    1        -0.2733873291E-03      0.8045753785E-03

    ------------------------------------------------
       NWT REQUIRED            4 OUTER ITERATIONS 
       AND A TOTAL OF          7 INNER ITERATIONS.
    ------------------------------------------------

 NO OUTPUT CONTROL FOR STRESS PERIOD    9   TIME STEP   12
 
 SOLVING FOR HEAD 
                                                   Max.-Head-Change                         Max.-Flux-Residual
  Residual-Control   Outer-Iter.   Inner-Iter.     Column Row Layer    Maximum-Head-Change  Column Row Layer    Maximum-Flux-Residual          L2-NORM 
          0                 1           2             4    8     1       0.2015411973E-01       4    8    1         0.3665743207E+00      0.1089846748E+01
          0                 2           2             4    8     1      -0.1997112709E-02       4    8    1        -0.3665797655E-01      0.1088670112E+00
          0                 3           2             4    8     1       0.1781074402E-03       4    8    1         0.3299212948E-02      0.9781441010E-02
          0                 4           1             4    8     1      -0.1413695534E-04       4    8    1        -0.2642670665E-03      0.7821655408E-03

    ------------------------------------------------
       NWT REQUIRED            4 OUTER ITERATIONS 
       AND A TOTAL OF          7 INNER ITERATIONS.
    ------------------------------------------------

 NO OUTPUT CONTROL FOR STRESS PERIOD    9   TIME STEP   13
 
 SOLVING FOR HEAD 
                                                   Max.-Head-Change                         Max.-Flux-Residual
  Residual-Control   Outer-Iter.   Inner-Iter.     Column Row Layer    Maximum-Head-Change  Column Row Layer    Maximum-Flux-Residual          L2-NORM 
          0                 1           2             4    8     1       0.2133180640E-01       4    8    1         0.3535392626E+00      0.1058458091E+01
          0                 2           2             4    8     1      -0.2113815279E-02       4    8    1        -0.3535452524E-01      0.1057548544E+00
          0                 3           2             4    8     1       0.1885152321E-03       4    8    1         0.3181901790E-02      0.9504627025E-02
          0                 4           1             4    8     1      -0.1496305549E-04       4    8    1        -0.2548704422E-03      0.7604127510E-03

    ------------------------------------------------
       NWT REQUIRED            4 OUTER ITERATIONS 
       AND A TOTAL OF          7 INNER ITERATIONS.
    ------------------------------------------------

 NO OUTPUT CONTROL FOR STRESS PERIOD    9   TIME STEP   14
 
 SOLVING FOR HEAD 
                                                   Max.-Head-Change                         Max.-Flux-Residual
  Residual-Control   Outer-Iter.   Inner-Iter.     Column Row Layer    Maximum-Head-Change  Column Row Layer    Maximum-Flux-Residual          L2-NORM 
          0                 1           2             4    8     1       0.2252549679E-01       4    8    1         0.3401808496E+00      0.1027257346E+01
          0                 2           2             4    8     1      -0.2232104331E-02       4    8    1        -0.3401873925E-01      0.1026576970E+00
          0                 3           2             4    8     1       0.1990645032E-03       4    8    1         0.3061680488E-02      0.9228677158E-02
          0                 4           1             4    8     1      -0.1580038479E-04       4    8    1        -0.2452407164E-03      0.7385106360E-03

    ------------------------------------------------
       NWT REQUIRED            4 OUTER ITERATIONS 
       AND A TOTAL OF          7 INNER ITERATIONS.
    ------------------------------------------------

 OUTPUT CONTROL FOR STRESS PERIOD    9   TIME STEP   15
    PRINT BUDGET
    PRINT HEAD FOR ALL LAYERS
    SAVE HEAD FOR ALL LAYERS
    SAVE BUDGET

            WELLS   PERIOD    9   STEP  15
 WELL      1   LAYER   1   ROW     6   COL     4   RATE    -1.00000    
 WELL      2   LAYER   1   ROW     6   COL     5   RATE    -1.00000    
 WELL      3   LAYER   1   ROW     7   COL     4   RATE    -1.00000    
 WELL      4   LAYER   1   ROW     7   COL     5   RATE    -1.00000    
 WELL      5   LAYER   1   ROW     8   COL     4   RATE    -1.00000    
 WELL      6   LAYER   1   ROW     8   COL     5   RATE    -1.00000    
 WELL      7   LAYER   1   ROW     9   COL     4   RATE    -1.00000    
 WELL      8   LAYER   1   ROW     9   COL     5   RATE    -1.00000    
 WELL      9   LAYER   1   ROW    10   COL     4   RATE    -1.00000    
 WELL     10   LAYER   1   ROW    10   COL     5   RATE    -1.00000    

  HEAD DEP BOUNDS   PERIOD    9   STEP    15
 BOUNDARY      1   LAYER   1   ROW    13   COL     1   RATE   -0.275789    
 BOUNDARY      2   LAYER   1   ROW    14   COL     9   RATE    0.302126    



 STREAM LISTING     PERIOD      9   STEP       15

 LAYER ROW COL. STREAM  RCH.  FLOW INTO     FLOW TO   FLOW OUT OF   OVRLND.     DIRECT     STREAM       STREAM     STREAM     STREAM   STREAMBED  STREAMBED
                SEG.NO.  NO.  STRM. RCH.    AQUIFER    STRM. RCH.    RUNOFF     PRECIP       ET          HEAD       DEPTH      WIDTH   CONDCTNC.   GRADIENT

   1    1    1     1     1    2.5000E+01  2.4557E-01   2.4935E+01  1.806E-01  0.000E+00  0.000E+00  1.09423E+03  1.180E+00  1.306E+01  5.875E-02  1.393E+00
   1    2    2     1     2    2.4935E+01  3.8140E-01   2.4835E+01  2.809E-01  0.000E+00  0.000E+00  1.08924E+03  1.178E+00  1.304E+01  9.128E-02  1.393E+00
   1    3    3     1     3    2.4835E+01  3.2634E-01   2.4749E+01  2.408E-01  0.000E+00  0.000E+00  1.08360E+03  1.177E+00  1.302E+01  7.813E-02  1.392E+00
   1    3    4     1     4    2.4749E+01  3.0139E-01   2.4670E+01  2.227E-01  0.000E+00  0.000E+00  1.07858E+03  1.176E+00  1.300E+01  7.218E-02  1.392E+00
   1    4    5     2     1    1.4670E+01  0.0000E+00   1.4817E+01  1.472E-01  0.000E+00  0.000E+00  1.07281E+03  8.797E-01  1.200E+01  0.000E+00  1.293E+00
   1    5    6     2     2    1.4817E+01  0.0000E+00   1.4931E+01  1.132E-01  0.000E+00  0.000E+00  1.06739E+03  8.843E-01  1.200E+01  0.000E+00  1.295E+00
   1    6    6     2     3    1.4931E+01  0.0000E+00   1.5044E+01  1.132E-01  0.000E+00  0.000E+00  1.06268E+03  8.883E-01  1.200E+01  0.000E+00  1.296E+00
   1    7    6     2     4    1.5044E+01  0.0000E+00   1.5157E+01  1.132E-01  0.000E+00  0.000E+00  1.05797E+03  8.924E-01  1.200E+01  0.000E+00  1.297E+00
   1    8    6     2     5    1.5157E+01  0.0000E+00   1.5270E+01  1.132E-01  0.000E+00  0.000E+00  1.05325E+03  8.964E-01  1.200E+01  0.000E+00  1.299E+00
   1    3    5     3     1    1.0000E+01  2.8252E-01   1.0367E+01  6.500E-01  0.000E+00  0.000E+00  1.07555E+03  1.909E+00  9.636E+00  7.227E-02  1.955E+00
   1    3    6     3     2    1.0367E+01  2.4905E-01   1.0768E+01  6.500E-01  0.000E+00  0.000E+00  1.07264E+03  1.727E+00  8.909E+00  6.682E-02  1.864E+00
   1    3    7     3     3    1.0768E+01  1.9718E-01   1.1156E+01  5.850E-01  0.000E+00  0.000E+00  1.06987E+03  1.555E+00  8.218E+00  5.547E-02  1.777E+00
   1    4    8     3     4    1.1156E+01  2.2567E-01   1.1711E+01  7.800E-01  0.000E+00  0.000E+00  1.06682E+03  1.364E+00  7.455E+00  6.709E-02  1.682E+00
   1    5    8     3     5    1.1711E+01  1.5790E-01   1.2203E+01  6.500E-01  0.000E+00  0.000E+00  1.06362E+03  1.164E+00  6.655E+00  4.991E-02  1.582E+00
   1    6    8     3     6    1.2203E+01  5.5980E-02   1.2407E+01  2.600E-01  0.000E+00  0.000E+00  1.06158E+03  1.036E+00  6.145E+00  1.844E-02  1.518E+00
   1    5   10     4     1    1.0000E+01  0.0000E+00   1.0125E+01  1.250E-01  0.000E+00  0.000E+00  1.07837E+03  6.409E-01  1.000E+01  0.000E+00  1.214E+00
   1    5    9     4     2    1.0125E+01  0.0000E+00   1.0375E+01  2.500E-01  0.000E+00  0.000E+00  1.07156E+03  6.480E-01  1.000E+01  0.000E+00  1.216E+00
   1    6    8     4     3    1.0375E+01  0.0000E+00   1.0550E+01  1.750E-01  0.000E+00  0.000E+00  1.06384E+03  6.561E-01  1.000E+01  0.000E+00  1.219E+00
   1    6    8     5     1    2.2957E+01  3.8743E-01   2.2789E+01  2.200E-01  0.000E+00  0.000E+00  1.05890E+03  8.972E-01  2.485E+01  9.941E-02  1.299E+00
   1    7    7     5     2    2.2789E+01  4.8158E-01   2.2583E+01  2.750E-01  0.000E+00  0.000E+00  1.05439E+03  8.946E-01  2.473E+01  1.237E-01  1.298E+00
   1    8    7     5     3    2.2583E+01  3.3534E-01   2.2440E+01  1.925E-01  0.000E+00  0.000E+00  1.05014E+03  8.922E-01  2.462E+01  8.616E-02  1.297E+00
   1    8    6     5     4    2.2440E+01  2.3865E-01   2.2339E+01  1.375E-01  0.000E+00  0.000E+00  1.04714E+03  8.905E-01  2.454E+01  6.134E-02  1.297E+00
   1    9    6     6     1    3.7609E+01  0.0000E+00   3.8052E+01  4.432E-01  0.000E+00  0.000E+00  1.04429E+03  1.566E+00  1.200E+01  0.000E+00  1.522E+00
   1   10    7     6     2    3.8052E+01  0.0000E+00   3.8495E+01  4.432E-01  0.000E+00  0.000E+00  1.03976E+03  1.577E+00  1.200E+01  0.000E+00  1.526E+00
   1   11    7     6     3    3.8495E+01  0.0000E+00   3.8939E+01  4.432E-01  0.000E+00  0.000E+00  1.03522E+03  1.587E+00  1.200E+01  0.000E+00  1.529E+00
   1   12    7     6     4    3.8939E+01  0.0000E+00   3.9382E+01  4.432E-01  0.000E+00  0.000E+00  1.03069E+03  1.598E+00  1.200E+01  0.000E+00  1.533E+00
   1   13    7     6     5    3.9382E+01  0.0000E+00   3.9559E+01  1.773E-01  0.000E+00  0.000E+00  1.02752E+03  1.606E+00  1.200E+01  0.000E+00  9.087E-01
   1   14    9     7     1    1.5000E+02  1.5770E+00   1.4883E+02  4.113E-01  0.000E+00  0.000E+00  1.03987E+03  2.288E+00  5.530E+01  5.593E-01  9.398E-01
   1   13    8     7     2    1.4883E+02  2.5785E+00   1.4671E+02  4.524E-01  0.000E+00  0.000E+00  1.03478E+03  2.279E+00  5.526E+01  6.148E-01  1.398E+00
   1   13    7     7     3    1.4671E+02  2.7345E+00   1.4438E+02  4.113E-01  0.000E+00  0.000E+00  1.02969E+03  2.268E+00  5.520E+01  5.583E-01  1.633E+00
   1   13    6     8     1    1.8394E+02  2.2642E+00   1.8397E+02  2.290E+00  0.000E+00  0.000E+00  1.02492E+03  3.041E+00  4.409E+01  4.493E-01  1.680E+00
   1   13    5     8     2    1.8397E+02  1.6682E+00   1.8459E+02  2.290E+00  0.000E+00  0.000E+00  1.01867E+03  3.043E+00  4.412E+01  4.496E-01  1.237E+00
   1   13    4     8     3    1.8459E+02  6.8556E-01   1.8620E+02  2.290E+00  0.000E+00  0.000E+00  1.01242E+03  3.050E+00  4.422E+01  4.506E-01  5.071E-01
   1   13    3     8     4    1.8620E+02 -3.0274E-01   1.8879E+02  2.290E+00  0.000E+00  0.000E+00  1.00619E+03  3.063E+00  4.441E+01  4.525E+00 -2.230E-02
   1   13    2     8     5    1.8879E+02 -9.0250E-01   1.9198E+02  2.290E+00  0.000E+00  0.000E+00  9.99955E+02  3.080E+00  4.466E+01  4.551E+00 -6.610E-02
   1   13    1     8     6    1.9198E+02 -7.8557E-01   1.9414E+02  1.374E+00  0.000E+00  0.000E+00  9.94971E+02  3.096E+00  4.490E+01  2.745E+00 -9.539E-02



 UBDSV3 SAVING "     NETRECHARGE" ON UNIT 100 AT TIME STEP    15, STRESS PERIOD   9
 UBDSV3 SAVING "    NETDISCHARGE" ON UNIT 101 AT TIME STEP    15, STRESS PERIOD   9
 UBDSV3 SAVING "           GW ET" ON UNIT  61 AT TIME STEP    15, STRESS PERIOD   9
 UBDSV3 SAVING "    UZF RECHARGE" ON UNIT  61 AT TIME STEP    15, STRESS PERIOD   9
 UBDSV3 SAVING " SURFACE LEAKAGE" ON UNIT  61 AT TIME STEP    15, STRESS PERIOD   9
 UBDSV3 SAVING "       HORT+DUNN" ON UNIT  61 AT TIME STEP    15, STRESS PERIOD   9
 UBDSV3 SAVING "  STORAGE CHANGE" ON UNIT  61 AT TIME STEP    15, STRESS PERIOD   9


UNSATURATED ZONE PACKAGE VOLUMETRIC BUDGET FOR  TIME STEP    15 STRESS PERIOD    9
  ------------------------------------------------------------------------------



     CUMULATIVE VOLUMES      L**3       RATES FOR THIS TIME STEP      L**3/T
     ------------------                 ------------------------

           IN:                                      IN:
           ---                                      ---
        INFILTRATION =    68590793.4297          INFILTRATION =           2.9000

          OUT:                                     OUT:
          ----                                     ----
              UZF ET =    20151979.8258                UZF ET =           1.1749
        UZF RECHARGE =     7880960.6654          UZF RECHARGE =       0.0000E+00

            IN - OUT =    40557852.9385              IN - OUT =           1.7251

          STORAGE:                                 STORAGE:
          --------                                 --------
      STORAGE CHANGE =    40557851.5642        STORAGE CHANGE =           1.7251

 PERCENT DISCREPANCY IS DIFFERENCE BETWEEN IN-OUT MINUS CHANGE IN STORAGE
 DIVIDED BY THE AVERAGE OF IN AND OUT TIMES 100

 PERCENT DISCREPANCY =           0.00     PERCENT DISCREPANCY =           0.00






1
              HEAD IN LAYER   1 AT END OF TIME STEP    15 IN STRESS PERIOD    9
  -----------------------------------------------------------------------------

           1       2       3       4       5       6       7       8       9      10
 ...................................................................................
   1  1029.20 1025.63 6999.00 6999.00 6999.00 6999.00 6999.00 6999.00 6999.00 6999.00
   2  1025.96 1021.08 1019.04 6999.00 6999.00 1017.46 1017.74 1017.88 6999.00 6999.00
   3  6999.00 1018.02 1016.69 1015.60 1015.49 1016.06 1016.85 1017.10 6999.00 6999.00
   4  1016.00 1015.98 1014.92 1013.87 1013.53 1013.73 1014.75 1016.31 1016.08 6999.00
   5  1015.20 1014.26 1012.94 1012.19 1012.32 1012.89 1013.66 1014.55 1015.07 1015.43
   6  1014.39 1013.04 1011.26 1010.46 1010.86 1012.09 1013.25 1014.30 1015.00 1015.74
   7  1013.85 1012.13 1010.14 1009.41 1010.03 1011.55 1013.03 1013.91 1015.23 6999.00
   8  6999.00 1011.50 1009.60 1008.99 1009.75 1011.38 1012.81 1014.26 1016.17 6999.00
   9  6999.00 1011.03 1009.59 1009.24 1010.06 1011.67 1013.08 1015.10 1017.74 6999.00
  10  6999.00 1010.53 1009.93 1010.04 1010.96 1012.69 1014.13 1016.50 1019.43 1020.35
  11  6999.00 1009.29 1009.97 1011.14 1012.51 1014.44 1016.33 1019.34 1022.68 6999.00
  12  1000.76 1005.50 1008.79 1011.24 1013.76 1016.74 1019.50 1024.43 1028.37 6999.00
  13   995.26 1000.15 1006.25 1010.90 1014.96 1019.88 1024.79 1030.59 1033.66 6999.00
  14  6999.00 1005.51 1008.20 1012.06 1016.06 1020.49 1025.78 1032.06 1037.05 6999.00
  15  6999.00 6999.00 1011.69 1014.04 1017.05 1019.80 6999.00 6999.00 6999.00 6999.00

 HEAD WILL BE SAVED ON UNIT   58 AT END OF TIME STEP   15, STRESS PERIOD    9
1
  VOLUMETRIC BUDGET FOR ENTIRE MODEL AT END OF TIME STEP   15, STRESS PERIOD   9
  ------------------------------------------------------------------------------

     CUMULATIVE VOLUMES      L**3       RATES FOR THIS TIME STEP      L**3/T
     ------------------                 ------------------------

           IN:                                      IN:
           ---                                      ---
             STORAGE =   429319360.0000               STORAGE =           5.6710
       CONSTANT HEAD =           0.0000         CONSTANT HEAD =           0.0000
               WELLS =           0.0000                 WELLS =           0.0000
     HEAD DEP BOUNDS =     7119415.5000       HEAD DEP BOUNDS =           0.3021
      STREAM LEAKAGE =   362530336.0000        STREAM LEAKAGE =          15.3740
        UZF RECHARGE =     7880964.5000          UZF RECHARGE =           0.0000
               GW ET =           0.0000                 GW ET =           0.0000
     SURFACE LEAKAGE =           0.0000       SURFACE LEAKAGE =           0.0000

            TOTAL IN =   806850048.0000              TOTAL IN =          21.3471

          OUT:                                     OUT:
          ----                                     ----
             STORAGE =   107928848.0000               STORAGE =           2.9587
       CONSTANT HEAD =           0.0000         CONSTANT HEAD =           0.0000
               WELLS =   499320032.0000                 WELLS =          10.0000
     HEAD DEP BOUNDS =     6711891.0000       HEAD DEP BOUNDS =           0.2758
      STREAM LEAKAGE =    60005264.0000        STREAM LEAKAGE =           1.9908
        UZF RECHARGE =           0.0000          UZF RECHARGE =           0.0000
               GW ET =   132897376.0000                 GW ET =           6.1219
     SURFACE LEAKAGE =           0.0000       SURFACE LEAKAGE =           0.0000

           TOTAL OUT =   806863360.0000             TOTAL OUT =          21.3472

            IN - OUT =      -13312.0000              IN - OUT =      -1.3351E-04

 PERCENT DISCREPANCY =          -0.00     PERCENT DISCREPANCY =          -0.00






         TIME SUMMARY AT END OF TIME STEP   15 IN STRESS PERIOD    9
                    SECONDS     MINUTES      HOURS       DAYS        YEARS
                    -----------------------------------------------------------
   TIME STEP LENGTH 3.14103E+05  5235.0      87.251      3.6354     9.95332E-03
 STRESS PERIOD TIME 2.62800E+06  43800.      730.00      30.417     8.32763E-02
         TOTAL TIME 2.36520E+07 3.94200E+05  6570.0      273.75     0.74949    
1
1
                            STRESS PERIOD NO.   10, LENGTH =   2628000.    
                            -----------------------------------------------

                              NUMBER OF TIME STEPS =    15

                               MULTIPLIER FOR DELT =     1.100

                            INITIAL TIME STEP SIZE =   82713.07    

      0 WELLS

 REUSING NON-PARAMETER GHB CELLS FROM LAST STRESS PERIOD

      2 GHB CELLS

 REUSING STREAM SEGMENT DATA FROM LAST STRESS PERIOD



            AREAL INFILTRATION RATE
 READING ON UNIT   19 WITH FORMAT: (10F4.0)            

            1           2           3           4           5           6           7           8           9          10
 ........................................................................................................................
   1   2.0000E-09  4.0000E-09   0.000       0.000       0.000       0.000       0.000       0.000       0.000       0.000    
   2   4.0000E-09  2.0000E-09  4.0000E-09   0.000       0.000      1.6000E-08  1.6000E-08  1.0000E-08   0.000       0.000    
   3    0.000      1.0000E-08  2.0000E-09  2.0000E-09  1.6000E-08  1.6000E-08  1.0000E-08  1.0000E-08   0.000       0.000    
   4   1.6000E-08  1.0000E-08  2.0000E-09  2.0000E-09  2.0000E-09  2.0000E-09  2.0000E-09  2.0000E-09  4.0000E-09   0.000    
   5   1.6000E-08  1.0000E-08  2.0000E-09  2.0000E-09  2.0000E-09  2.0000E-09  2.0000E-09  2.0000E-09  2.0000E-09  2.0000E-09
   6   1.6000E-08  1.0000E-08  1.0000E-08  4.0000E-09  4.0000E-09  2.0000E-09  2.0000E-09  2.0000E-09  2.0000E-09  1.0000E-08
   7   1.6000E-08  1.0000E-08  1.0000E-08  4.0000E-09  4.0000E-09  2.0000E-09  2.0000E-09  4.0000E-09  4.0000E-09   0.000    
   8    0.000      1.0000E-08  1.0000E-08  4.0000E-09  4.0000E-09  2.0000E-09  2.0000E-09  4.0000E-09  1.0000E-08   0.000    
   9    0.000      1.0000E-08  1.0000E-08  4.0000E-09  4.0000E-09  2.0000E-09  2.0000E-09  4.0000E-09  1.0000E-08   0.000    
  10    0.000      1.0000E-08  1.0000E-08  4.0000E-09  4.0000E-09  2.0000E-09  2.0000E-09  4.0000E-09  1.0000E-08  1.6000E-08
  11    0.000      2.0000E-09  2.0000E-09  2.0000E-09  2.0000E-09  2.0000E-09  2.0000E-09  4.0000E-09  1.0000E-08   0.000    
  12   2.0000E-09  2.0000E-09  2.0000E-09  2.0000E-09  2.0000E-09  2.0000E-09  2.0000E-09  2.0000E-09  4.0000E-09   0.000    
  13   2.0000E-09  2.0000E-09  4.0000E-09  4.0000E-09  4.0000E-09  4.0000E-09  4.0000E-09  2.0000E-09  2.0000E-09   0.000    
  14    0.000      4.0000E-09  1.0000E-08  1.0000E-08  1.0000E-08  1.0000E-08  1.0000E-08  4.0000E-09  2.0000E-09   0.000    
  15    0.000       0.000      1.6000E-08  1.6000E-08  1.6000E-08  1.6000E-08   0.000       0.000       0.000       0.000    

USING ET RATE FROM PREVIOUS STRESS PERIOD. CURRENT PERIOD IS:      10

 USING ET EXTINCTION DEPTH FROM PREVIOUS STRESS PERIOD. CURRENT PERIOD IS:      10

 USING EXTINCTION WATER CONTENT FROM PREVIOUS STRESS PERIOD. CURRENT PERIOD IS:      10
 
 SOLVING FOR HEAD 
                                                   Max.-Head-Change                         Max.-Flux-Residual
  Residual-Control   Outer-Iter.   Inner-Iter.     Column Row Layer    Maximum-Head-Change  Column Row Layer    Maximum-Flux-Residual          L2-NORM 
          0                 1           2             4    8     1       0.2396853878E-01       4    8    1         0.1326559276E+01      0.3851898906E+01
          0                 2           2             4    8     1      -0.2375070181E-02       4    8    1        -0.1326563311E+00      0.3851024228E+00
          0                 3           2             4    8     1       0.2118148295E-03       4    8    1         0.1193906730E-01      0.3465067176E-01
          0                 4           1             4    8     1      -0.1681241702E-04       4    8    1        -0.9563195663E-03      0.2774700789E-02

    ------------------------------------------------
       NWT REQUIRED            4 OUTER ITERATIONS 
       AND A TOTAL OF          7 INNER ITERATIONS.
    ------------------------------------------------

 NO OUTPUT CONTROL FOR STRESS PERIOD   10   TIME STEP    1
 
 SOLVING FOR HEAD 
                                                   Max.-Head-Change                         Max.-Flux-Residual
  Residual-Control   Outer-Iter.   Inner-Iter.     Column Row Layer    Maximum-Head-Change  Column Row Layer    Maximum-Flux-Residual          L2-NORM 
          0                 1           2             4    8     1       0.2621044220E-01       4    8    1         0.1319556536E+01      0.3808397940E+01
          0                 2           2             4    8     1      -0.2597224108E-02       4    8    1        -0.1319561262E+00      0.3807551411E+00
          0                 3           2             4    8     1       0.2316270733E-03       4    8    1         0.1187604818E-01      0.3425976497E-01
          0                 4           1             4    8     1      -0.1838497800E-04       4    8    1        -0.9512717304E-03      0.2743660417E-02

    ------------------------------------------------
       NWT REQUIRED            4 OUTER ITERATIONS 
       AND A TOTAL OF          7 INNER ITERATIONS.
    ------------------------------------------------

 NO OUTPUT CONTROL FOR STRESS PERIOD   10   TIME STEP    2
 
 SOLVING FOR HEAD 
                                                   Max.-Head-Change                         Max.-Flux-Residual
  Residual-Control   Outer-Iter.   Inner-Iter.     Column Row Layer    Maximum-Head-Change  Column Row Layer    Maximum-Flux-Residual          L2-NORM 
          0                 1           2             4    8     1       0.2864268815E-01       4    8    1         0.1311799353E+01      0.3762571487E+01
          0                 2           2             4    8     1      -0.2838239763E-02       4    8    1        -0.1311804906E+00      0.3761761002E+00
          0                 3           2             4    8     1       0.2531214499E-03       4    8    1         0.1180624017E-01      0.3384796198E-01
          0                 4           1             4    8     1      -0.2009105506E-04       4    8    1        -0.9456801147E-03      0.2710563261E-02

    ------------------------------------------------
       NWT REQUIRED            4 OUTER ITERATIONS 
       AND A TOTAL OF          7 INNER ITERATIONS.
    ------------------------------------------------

 NO OUTPUT CONTROL FOR STRESS PERIOD   10   TIME STEP    3
 
 SOLVING FOR HEAD 
                                                   Max.-Head-Change                         Max.-Flux-Residual
  Residual-Control   Outer-Iter.   Inner-Iter.     Column Row Layer    Maximum-Head-Change  Column Row Layer    Maximum-Flux-Residual          L2-NORM 
          0                 1           2             4    8     1       0.3127711768E-01       4    8    1         0.1303213617E+01      0.3714398478E+01
          0                 2           2             4    8     1      -0.3099290648E-02       4    8    1        -0.1303220165E+00      0.3713633143E+00
          0                 3           2             4    8     1       0.2764026132E-03       4    8    1         0.1172897651E-01      0.3341509237E-01
          0                 4           1             4    8     1      -0.2193895571E-04       4    8    1        -0.9394913163E-03      0.2675847677E-02

    ------------------------------------------------
       NWT REQUIRED            4 OUTER ITERATIONS 
       AND A TOTAL OF          7 INNER ITERATIONS.
    ------------------------------------------------

 NO OUTPUT CONTROL FOR STRESS PERIOD   10   TIME STEP    4
 
 SOLVING FOR HEAD 
                                                   Max.-Head-Change                         Max.-Flux-Residual
  Residual-Control   Outer-Iter.   Inner-Iter.     Column Row Layer    Maximum-Head-Change  Column Row Layer    Maximum-Flux-Residual          L2-NORM 
          0                 1           2             4    8     1       0.3412494214E-01       4    8    1         0.1293705562E+01      0.3663860089E+01
          0                 2           2             4    8     1      -0.3381487919E-02       4    8    1        -0.1293713304E+00      0.3663147927E+00
          0                 3           2             4    8     1       0.3015696572E-03       4    8    1         0.1164341359E-01      0.3296140127E-01
          0                 4           1             4    8     1      -0.2393654417E-04       4    8    1        -0.9326377317E-03      0.2639573824E-02

    ------------------------------------------------
       NWT REQUIRED            4 OUTER ITERATIONS 
       AND A TOTAL OF          7 INNER ITERATIONS.
    ------------------------------------------------

 OUTPUT CONTROL FOR STRESS PERIOD   10   TIME STEP    5
    PRINT BUDGET
    SAVE BUDGET

  HEAD DEP BOUNDS   PERIOD   10   STEP     5
 BOUNDARY      1   LAYER   1   ROW    13   COL     1   RATE   -0.275215    
 BOUNDARY      2   LAYER   1   ROW    14   COL     9   RATE    0.302171    



 STREAM LISTING     PERIOD     10   STEP        5

 LAYER ROW COL. STREAM  RCH.  FLOW INTO     FLOW TO   FLOW OUT OF   OVRLND.     DIRECT     STREAM       STREAM     STREAM     STREAM   STREAMBED  STREAMBED
                SEG.NO.  NO.  STRM. RCH.    AQUIFER    STRM. RCH.    RUNOFF     PRECIP       ET          HEAD       DEPTH      WIDTH   CONDCTNC.   GRADIENT

   1    1    1     1     1    2.5000E+01  2.4540E-01   2.4862E+01  1.074E-01  0.000E+00  0.000E+00  1.09423E+03  1.179E+00  1.305E+01  5.872E-02  1.393E+00
   1    2    2     1     2    2.4862E+01  3.8046E-01   2.4649E+01  1.670E-01  0.000E+00  0.000E+00  1.08924E+03  1.177E+00  1.301E+01  9.110E-02  1.392E+00
   1    3    3     1     3    2.4649E+01  3.2489E-01   2.4467E+01  1.432E-01  0.000E+00  0.000E+00  1.08359E+03  1.174E+00  1.297E+01  7.784E-02  1.391E+00
   1    3    4     1     4    2.4467E+01  2.9952E-01   2.4300E+01  1.324E-01  0.000E+00  0.000E+00  1.07858E+03  1.171E+00  1.294E+01  7.181E-02  1.390E+00
   1    4    5     2     1    1.4300E+01  0.0000E+00   1.4373E+01  7.358E-02  0.000E+00  0.000E+00  1.07280E+03  8.650E-01  1.200E+01  0.000E+00  1.288E+00
   1    5    6     2     2    1.4373E+01  0.0000E+00   1.4430E+01  5.660E-02  0.000E+00  0.000E+00  1.06738E+03  8.673E-01  1.200E+01  0.000E+00  1.289E+00
   1    6    6     2     3    1.4430E+01  0.0000E+00   1.4487E+01  5.660E-02  0.000E+00  0.000E+00  1.06266E+03  8.694E-01  1.200E+01  0.000E+00  1.290E+00
   1    7    6     2     4    1.4487E+01  0.0000E+00   1.4543E+01  5.660E-02  0.000E+00  0.000E+00  1.05795E+03  8.714E-01  1.200E+01  0.000E+00  1.290E+00
   1    8    6     2     5    1.4543E+01  0.0000E+00   1.4600E+01  5.660E-02  0.000E+00  0.000E+00  1.05323E+03  8.735E-01  1.200E+01  0.000E+00  1.291E+00
   1    3    5     3     1    1.0000E+01  2.8252E-01   1.0136E+01  4.182E-01  0.000E+00  0.000E+00  1.07555E+03  1.909E+00  9.636E+00  7.227E-02  1.955E+00
   1    3    6     3     2    1.0136E+01  2.4905E-01   1.0305E+01  4.182E-01  0.000E+00  0.000E+00  1.07264E+03  1.727E+00  8.909E+00  6.682E-02  1.864E+00
   1    3    7     3     3    1.0305E+01  1.9718E-01   1.0484E+01  3.764E-01  0.000E+00  0.000E+00  1.06987E+03  1.555E+00  8.218E+00  5.547E-02  1.777E+00
   1    4    8     3     4    1.0484E+01  2.2567E-01   1.0760E+01  5.018E-01  0.000E+00  0.000E+00  1.06682E+03  1.364E+00  7.455E+00  6.709E-02  1.682E+00
   1    5    8     3     5    1.0760E+01  1.5790E-01   1.1020E+01  4.182E-01  0.000E+00  0.000E+00  1.06362E+03  1.164E+00  6.655E+00  4.991E-02  1.582E+00
   1    6    8     3     6    1.1020E+01  5.5980E-02   1.1132E+01  1.673E-01  0.000E+00  0.000E+00  1.06158E+03  1.036E+00  6.145E+00  1.844E-02  1.518E+00
   1    5   10     4     1    1.0000E+01  0.0000E+00   1.0074E+01  7.386E-02  0.000E+00  0.000E+00  1.07837E+03  6.399E-01  1.000E+01  0.000E+00  1.213E+00
   1    5    9     4     2    1.0074E+01  0.0000E+00   1.0222E+01  1.477E-01  0.000E+00  0.000E+00  1.07155E+03  6.442E-01  1.000E+01  0.000E+00  1.215E+00
   1    6    8     4     3    1.0222E+01  0.0000E+00   1.0325E+01  1.034E-01  0.000E+00  0.000E+00  1.06383E+03  6.489E-01  1.000E+01  0.000E+00  1.216E+00
   1    6    8     5     1    2.1457E+01  3.6956E-01   2.1220E+01  1.333E-01  0.000E+00  0.000E+00  1.05888E+03  8.756E-01  2.384E+01  9.535E-02  1.292E+00
   1    7    7     5     2    2.1220E+01  4.5807E-01   2.0929E+01  1.667E-01  0.000E+00  0.000E+00  1.05437E+03  8.718E-01  2.366E+01  1.183E-01  1.291E+00
   1    8    7     5     3    2.0929E+01  3.1810E-01   2.0728E+01  1.167E-01  0.000E+00  0.000E+00  1.05012E+03  8.683E-01  2.350E+01  8.223E-02  1.289E+00
   1    8    6     5     4    2.0728E+01  2.2594E-01   2.0585E+01  8.333E-02  0.000E+00  0.000E+00  1.04712E+03  8.657E-01  2.338E+01  5.845E-02  1.289E+00
   1    9    6     6     1    3.5185E+01  0.0000E+00   3.5457E+01  2.727E-01  0.000E+00  0.000E+00  1.04423E+03  1.502E+00  1.200E+01  0.000E+00  1.501E+00
   1   10    7     6     2    3.5457E+01  0.0000E+00   3.5730E+01  2.727E-01  0.000E+00  0.000E+00  1.03969E+03  1.509E+00  1.200E+01  0.000E+00  1.503E+00
   1   11    7     6     3    3.5730E+01  0.0000E+00   3.6003E+01  2.727E-01  0.000E+00  0.000E+00  1.03515E+03  1.516E+00  1.200E+01  0.000E+00  1.505E+00
   1   12    7     6     4    3.6003E+01  0.0000E+00   3.6276E+01  2.727E-01  0.000E+00  0.000E+00  1.03061E+03  1.523E+00  1.200E+01  0.000E+00  1.508E+00
   1   13    7     6     5    3.6276E+01  0.0000E+00   3.6385E+01  1.091E-01  0.000E+00  0.000E+00  1.02744E+03  1.528E+00  1.200E+01  0.000E+00  8.856E-01
   1   14    9     7     1    1.5000E+02  1.5774E+00   1.4867E+02  2.500E-01  0.000E+00  0.000E+00  1.03987E+03  2.288E+00  5.529E+01  5.593E-01  9.401E-01
   1   13    8     7     2    1.4867E+02  2.5800E+00   1.4637E+02  2.750E-01  0.000E+00  0.000E+00  1.03478E+03  2.278E+00  5.525E+01  6.147E-01  1.399E+00
   1   13    7     7     3    1.4637E+02  2.7375E+00   1.4388E+02  2.500E-01  0.000E+00  0.000E+00  1.02968E+03  2.265E+00  5.519E+01  5.582E-01  1.635E+00
   1   13    6     8     1    1.8026E+02  2.2401E+00   1.7947E+02  1.446E+00  0.000E+00  0.000E+00  1.02489E+03  3.015E+00  4.372E+01  4.455E-01  1.676E+00
   1   13    5     8     2    1.7947E+02  1.6429E+00   1.7927E+02  1.446E+00  0.000E+00  0.000E+00  1.01864E+03  3.012E+00  4.368E+01  4.451E-01  1.230E+00
   1   13    4     8     3    1.7927E+02  6.6702E-01   1.8005E+02  1.446E+00  0.000E+00  0.000E+00  1.01239E+03  3.014E+00  4.370E+01  4.454E-01  4.992E-01
   1   13    3     8     4    1.8005E+02 -4.0253E-01   1.8190E+02  1.446E+00  0.000E+00  0.000E+00  1.00615E+03  3.022E+00  4.382E+01  4.466E+00 -3.005E-02
   1   13    2     8     5    1.8190E+02 -1.0093E+00   1.8436E+02  1.446E+00  0.000E+00  0.000E+00  9.99911E+02  3.036E+00  4.402E+01  4.486E+00 -7.501E-02
   1   13    1     8     6    1.8436E+02 -8.6171E-01   1.8609E+02  8.679E-01  0.000E+00  0.000E+00  9.94924E+02  3.049E+00  4.421E+01  2.703E+00 -1.063E-01



 UBDSV3 SAVING "     NETRECHARGE" ON UNIT 100 AT TIME STEP     5, STRESS PERIOD  10
 UBDSV3 SAVING "    NETDISCHARGE" ON UNIT 101 AT TIME STEP     5, STRESS PERIOD  10
 UBDSV3 SAVING "           GW ET" ON UNIT  61 AT TIME STEP     5, STRESS PERIOD  10
 UBDSV3 SAVING "    UZF RECHARGE" ON UNIT  61 AT TIME STEP     5, STRESS PERIOD  10
 UBDSV3 SAVING " SURFACE LEAKAGE" ON UNIT  61 AT TIME STEP     5, STRESS PERIOD  10
 UBDSV3 SAVING "       HORT+DUNN" ON UNIT  61 AT TIME STEP     5, STRESS PERIOD  10
 UBDSV3 SAVING "  STORAGE CHANGE" ON UNIT  61 AT TIME STEP     5, STRESS PERIOD  10


UNSATURATED ZONE PACKAGE VOLUMETRIC BUDGET FOR  TIME STEP     5 STRESS PERIOD   10
  ------------------------------------------------------------------------------



     CUMULATIVE VOLUMES      L**3       RATES FOR THIS TIME STEP      L**3/T
     ------------------                 ------------------------

           IN:                                      IN:
           ---                                      ---
        INFILTRATION =    70055210.9893          INFILTRATION =           2.9000

          OUT:                                     OUT:
          ----                                     ----
              UZF ET =    20743711.2567                UZF ET =           1.1723
        UZF RECHARGE =     7880960.6654          UZF RECHARGE =       0.0000E+00

            IN - OUT =    41430539.0671              IN - OUT =           1.7277

          STORAGE:                                 STORAGE:
          --------                                 --------
      STORAGE CHANGE =    41430537.6748        STORAGE CHANGE =           1.7277

 PERCENT DISCREPANCY IS DIFFERENCE BETWEEN IN-OUT MINUS CHANGE IN STORAGE
 DIVIDED BY THE AVERAGE OF IN AND OUT TIMES 100

 PERCENT DISCREPANCY =           0.00     PERCENT DISCREPANCY =           0.00






1
  VOLUMETRIC BUDGET FOR ENTIRE MODEL AT END OF TIME STEP    5, STRESS PERIOD  10
  ------------------------------------------------------------------------------

     CUMULATIVE VOLUMES      L**3       RATES FOR THIS TIME STEP      L**3/T
     ------------------                 ------------------------

           IN:                                      IN:
           ---                                      ---
             STORAGE =   432369280.0000               STORAGE =           5.8752
       CONSTANT HEAD =           0.0000         CONSTANT HEAD =           0.0000
               WELLS =           0.0000                 WELLS =           0.0000
     HEAD DEP BOUNDS =     7271994.0000       HEAD DEP BOUNDS =           0.3022
      STREAM LEAKAGE =   370218816.0000        STREAM LEAKAGE =          15.2351
        UZF RECHARGE =     7880964.5000          UZF RECHARGE =           0.0000
               GW ET =           0.0000                 GW ET =           0.0000
     SURFACE LEAKAGE =           0.0000       SURFACE LEAKAGE =           0.0000

            TOTAL IN =   817741056.0000              TOTAL IN =          21.4125

          OUT:                                     OUT:
          ----                                     ----
             STORAGE =   114410496.0000               STORAGE =          12.7562
       CONSTANT HEAD =           0.0000         CONSTANT HEAD =           0.0000
               WELLS =   499320032.0000                 WELLS =           0.0000
     HEAD DEP BOUNDS =     6850976.5000       HEAD DEP BOUNDS =           0.2752
      STREAM LEAKAGE =    61188316.0000        STREAM LEAKAGE =           2.2736
        UZF RECHARGE =           0.0000          UZF RECHARGE =           0.0000
               GW ET =   135984384.0000                 GW ET =           6.1072
     SURFACE LEAKAGE =           0.0000       SURFACE LEAKAGE =           0.0000

           TOTAL OUT =   817754240.0000             TOTAL OUT =          21.4122

            IN - OUT =      -13184.0000              IN - OUT =       3.5477E-04

 PERCENT DISCREPANCY =          -0.00     PERCENT DISCREPANCY =           0.00






         TIME SUMMARY AT END OF TIME STEP    5 IN STRESS PERIOD   10
                    SECONDS     MINUTES      HOURS       DAYS        YEARS
                    -----------------------------------------------------------
   TIME STEP LENGTH 1.21100E+05  2018.3      33.639      1.4016     3.83743E-03
 STRESS PERIOD TIME 5.04972E+05  8416.2      140.27      5.8446     1.60016E-02
         TOTAL TIME 2.41570E+07 4.02616E+05  6710.3      279.59     0.76549    
1
 
 SOLVING FOR HEAD 
                                                   Max.-Head-Change                         Max.-Flux-Residual
  Residual-Control   Outer-Iter.   Inner-Iter.     Column Row Layer    Maximum-Head-Change  Column Row Layer    Maximum-Flux-Residual          L2-NORM 
          0                 1           2             4    8     1       0.3719677152E-01       4    8    1         0.1283179443E+01      0.3610925295E+01
          0                 2           2             4    8     1      -0.3685883205E-02       4    8    1        -0.1283188619E+00      0.3610273056E+00
          0                 3           2             4    8     1       0.3287163651E-03       4    8    1         0.1154868998E-01      0.3248610041E-01
          0                 4           1             4    8     1      -0.2609126562E-04       4    8    1        -0.9250503902E-03      0.2601673401E-02

    ------------------------------------------------
       NWT REQUIRED            4 OUTER ITERATIONS 
       AND A TOTAL OF          7 INNER ITERATIONS.
    ------------------------------------------------

 NO OUTPUT CONTROL FOR STRESS PERIOD   10   TIME STEP    6
 
 SOLVING FOR HEAD 
                                                   Max.-Head-Change                         Max.-Flux-Residual
  Residual-Control   Outer-Iter.   Inner-Iter.     Column Row Layer    Maximum-Head-Change  Column Row Layer    Maximum-Flux-Residual          L2-NORM 
          0                 1           2             4    8     1       0.4050222481E-01       4    8    1         0.1271535407E+01      0.3555646919E+01
          0                 2           2             4    8     1      -0.4013430023E-02       4    8    1        -0.1271546304E+00      0.3555058179E+00
          0                 3           2             4    8     1       0.3579277716E-03       4    8    1         0.1144390747E-01      0.3198989307E-01
          0                 4           1             4    8     1      -0.2840986763E-04       4    8    1        -0.9166572981E-03      0.2562004282E-02

    ------------------------------------------------
       NWT REQUIRED            4 OUTER ITERATIONS 
       AND A TOTAL OF          7 INNER ITERATIONS.
    ------------------------------------------------

 NO OUTPUT CONTROL FOR STRESS PERIOD   10   TIME STEP    7
 
 SOLVING FOR HEAD 
                                                   Max.-Head-Change                         Max.-Flux-Residual
  Residual-Control   Outer-Iter.   Inner-Iter.     Column Row Layer    Maximum-Head-Change  Column Row Layer    Maximum-Flux-Residual          L2-NORM 
          0                 1           2             4    8     1       0.4404920268E-01       4    8    1         0.1258662128E+01      0.3497983645E+01
          0                 2           2             4    8     1      -0.4364911721E-02       4    8    1        -0.1258675088E+00      0.3497460205E+00
          0                 3           2             4    8     1       0.3892737331E-03       4    8    1         0.1132806449E-01      0.3147206381E-01
          0                 4           1             4    8     1      -0.3089789706E-04       4    8    1        -0.9073782960E-03      0.2520562098E-02

    ------------------------------------------------
       NWT REQUIRED            4 OUTER ITERATIONS 
       AND A TOTAL OF          7 INNER ITERATIONS.
    ------------------------------------------------

 NO OUTPUT CONTROL FOR STRESS PERIOD   10   TIME STEP    8
 
 SOLVING FOR HEAD 
                                                   Max.-Head-Change                         Max.-Flux-Residual
  Residual-Control   Outer-Iter.   Inner-Iter.     Column Row Layer    Maximum-Head-Change  Column Row Layer    Maximum-Flux-Residual          L2-NORM 
          0                 1           2             4    8     1       0.4784360542E-01       4    8    1         0.1244445669E+01      0.3437978753E+01
          0                 2           2             4    8     1      -0.4740913554E-02       4    8    1        -0.1244461093E+00      0.3437521858E+00
          0                 3           2             4    8     1       0.4228064373E-03       4    8    1         0.1120013608E-01      0.3093322806E-01
          0                 4           1             4    8     1      -0.3355949538E-04       4    8    1        -0.8971312513E-03      0.2477429863E-02

    ------------------------------------------------
       NWT REQUIRED            4 OUTER ITERATIONS 
       AND A TOTAL OF          7 INNER ITERATIONS.
    ------------------------------------------------

 NO OUTPUT CONTROL FOR STRESS PERIOD   10   TIME STEP    9
 
 SOLVING FOR HEAD 
                                                   Max.-Head-Change                         Max.-Flux-Residual
  Residual-Control   Outer-Iter.   Inner-Iter.     Column Row Layer    Maximum-Head-Change  Column Row Layer    Maximum-Flux-Residual          L2-NORM 
          0                 1           2             4    8     1       0.5188859406E-01       4    8    1         0.1228767314E+01      0.3375563809E+01
          0                 2           2             4    8     1      -0.5141749499E-02       4    8    1        -0.1228785670E+00      0.3375175009E+00
          0                 3           2             4    8     1       0.4585538789E-03       4    8    1         0.1105905437E-01      0.3037277267E-01
          0                 4           1             4    8     1      -0.3639688517E-04       4    8    1        -0.8858306344E-03      0.2432548598E-02

    ------------------------------------------------
       NWT REQUIRED            4 OUTER ITERATIONS 
       AND A TOTAL OF          7 INNER ITERATIONS.
    ------------------------------------------------

 OUTPUT CONTROL FOR STRESS PERIOD   10   TIME STEP   10
    PRINT BUDGET
    SAVE BUDGET

  HEAD DEP BOUNDS   PERIOD   10   STEP    10
 BOUNDARY      1   LAYER   1   ROW    13   COL     1   RATE   -0.274556    
 BOUNDARY      2   LAYER   1   ROW    14   COL     9   RATE    0.302244    



 STREAM LISTING     PERIOD     10   STEP       10

 LAYER ROW COL. STREAM  RCH.  FLOW INTO     FLOW TO   FLOW OUT OF   OVRLND.     DIRECT     STREAM       STREAM     STREAM     STREAM   STREAMBED  STREAMBED
                SEG.NO.  NO.  STRM. RCH.    AQUIFER    STRM. RCH.    RUNOFF     PRECIP       ET          HEAD       DEPTH      WIDTH   CONDCTNC.   GRADIENT

   1    1    1     1     1    2.5000E+01  2.4540E-01   2.4862E+01  1.074E-01  0.000E+00  0.000E+00  1.09423E+03  1.179E+00  1.305E+01  5.872E-02  1.393E+00
   1    2    2     1     2    2.4862E+01  3.8046E-01   2.4649E+01  1.670E-01  0.000E+00  0.000E+00  1.08924E+03  1.177E+00  1.301E+01  9.110E-02  1.392E+00
   1    3    3     1     3    2.4649E+01  3.2489E-01   2.4467E+01  1.432E-01  0.000E+00  0.000E+00  1.08359E+03  1.174E+00  1.297E+01  7.784E-02  1.391E+00
   1    3    4     1     4    2.4467E+01  2.9952E-01   2.4300E+01  1.324E-01  0.000E+00  0.000E+00  1.07858E+03  1.171E+00  1.294E+01  7.181E-02  1.390E+00
   1    4    5     2     1    1.4300E+01  0.0000E+00   1.4373E+01  7.358E-02  0.000E+00  0.000E+00  1.07280E+03  8.650E-01  1.200E+01  0.000E+00  1.288E+00
   1    5    6     2     2    1.4373E+01  0.0000E+00   1.4430E+01  5.660E-02  0.000E+00  0.000E+00  1.06738E+03  8.673E-01  1.200E+01  0.000E+00  1.289E+00
   1    6    6     2     3    1.4430E+01  0.0000E+00   1.4487E+01  5.660E-02  0.000E+00  0.000E+00  1.06266E+03  8.694E-01  1.200E+01  0.000E+00  1.290E+00
   1    7    6     2     4    1.4487E+01  0.0000E+00   1.4543E+01  5.660E-02  0.000E+00  0.000E+00  1.05795E+03  8.714E-01  1.200E+01  0.000E+00  1.290E+00
   1    8    6     2     5    1.4543E+01  0.0000E+00   1.4600E+01  5.660E-02  0.000E+00  0.000E+00  1.05323E+03  8.735E-01  1.200E+01  0.000E+00  1.291E+00
   1    3    5     3     1    1.0000E+01  2.8252E-01   1.0136E+01  4.182E-01  0.000E+00  0.000E+00  1.07555E+03  1.909E+00  9.636E+00  7.227E-02  1.955E+00
   1    3    6     3     2    1.0136E+01  2.4905E-01   1.0305E+01  4.182E-01  0.000E+00  0.000E+00  1.07264E+03  1.727E+00  8.909E+00  6.682E-02  1.864E+00
   1    3    7     3     3    1.0305E+01  1.9718E-01   1.0484E+01  3.764E-01  0.000E+00  0.000E+00  1.06987E+03  1.555E+00  8.218E+00  5.547E-02  1.777E+00
   1    4    8     3     4    1.0484E+01  2.2567E-01   1.0760E+01  5.018E-01  0.000E+00  0.000E+00  1.06682E+03  1.364E+00  7.455E+00  6.709E-02  1.682E+00
   1    5    8     3     5    1.0760E+01  1.5790E-01   1.1020E+01  4.182E-01  0.000E+00  0.000E+00  1.06362E+03  1.164E+00  6.655E+00  4.991E-02  1.582E+00
   1    6    8     3     6    1.1020E+01  5.5980E-02   1.1132E+01  1.673E-01  0.000E+00  0.000E+00  1.06158E+03  1.036E+00  6.145E+00  1.844E-02  1.518E+00
   1    5   10     4     1    1.0000E+01  0.0000E+00   1.0074E+01  7.386E-02  0.000E+00  0.000E+00  1.07837E+03  6.399E-01  1.000E+01  0.000E+00  1.213E+00
   1    5    9     4     2    1.0074E+01  0.0000E+00   1.0222E+01  1.477E-01  0.000E+00  0.000E+00  1.07155E+03  6.442E-01  1.000E+01  0.000E+00  1.215E+00
   1    6    8     4     3    1.0222E+01  0.0000E+00   1.0325E+01  1.034E-01  0.000E+00  0.000E+00  1.06383E+03  6.489E-01  1.000E+01  0.000E+00  1.216E+00
   1    6    8     5     1    2.1457E+01  3.6956E-01   2.1220E+01  1.333E-01  0.000E+00  0.000E+00  1.05888E+03  8.756E-01  2.384E+01  9.535E-02  1.292E+00
   1    7    7     5     2    2.1220E+01  4.5807E-01   2.0929E+01  1.667E-01  0.000E+00  0.000E+00  1.05437E+03  8.718E-01  2.366E+01  1.183E-01  1.291E+00
   1    8    7     5     3    2.0929E+01  3.1810E-01   2.0728E+01  1.167E-01  0.000E+00  0.000E+00  1.05012E+03  8.683E-01  2.350E+01  8.223E-02  1.289E+00
   1    8    6     5     4    2.0728E+01  2.2594E-01   2.0585E+01  8.333E-02  0.000E+00  0.000E+00  1.04712E+03  8.657E-01  2.338E+01  5.845E-02  1.289E+00
   1    9    6     6     1    3.5185E+01  0.0000E+00   3.5457E+01  2.727E-01  0.000E+00  0.000E+00  1.04423E+03  1.502E+00  1.200E+01  0.000E+00  1.501E+00
   1   10    7     6     2    3.5457E+01  0.0000E+00   3.5730E+01  2.727E-01  0.000E+00  0.000E+00  1.03969E+03  1.509E+00  1.200E+01  0.000E+00  1.503E+00
   1   11    7     6     3    3.5730E+01  0.0000E+00   3.6003E+01  2.727E-01  0.000E+00  0.000E+00  1.03515E+03  1.516E+00  1.200E+01  0.000E+00  1.505E+00
   1   12    7     6     4    3.6003E+01  0.0000E+00   3.6276E+01  2.727E-01  0.000E+00  0.000E+00  1.03061E+03  1.523E+00  1.200E+01  0.000E+00  1.508E+00
   1   13    7     6     5    3.6276E+01  0.0000E+00   3.6385E+01  1.091E-01  0.000E+00  0.000E+00  1.02744E+03  1.528E+00  1.200E+01  0.000E+00  8.901E-01
   1   14    9     7     1    1.5000E+02  1.5785E+00   1.4867E+02  2.500E-01  0.000E+00  0.000E+00  1.03987E+03  2.288E+00  5.529E+01  5.593E-01  9.407E-01
   1   13    8     7     2    1.4867E+02  2.5840E+00   1.4636E+02  2.750E-01  0.000E+00  0.000E+00  1.03478E+03  2.278E+00  5.525E+01  6.147E-01  1.401E+00
   1   13    7     7     3    1.4636E+02  2.7450E+00   1.4387E+02  2.500E-01  0.000E+00  0.000E+00  1.02968E+03  2.265E+00  5.519E+01  5.582E-01  1.639E+00
   1   13    6     8     1    1.8025E+02  2.2489E+00   1.7945E+02  1.446E+00  0.000E+00  0.000E+00  1.02489E+03  3.015E+00  4.372E+01  4.455E-01  1.683E+00
   1   13    5     8     2    1.7945E+02  1.6492E+00   1.7925E+02  1.446E+00  0.000E+00  0.000E+00  1.01864E+03  3.012E+00  4.367E+01  4.451E-01  1.235E+00
   1   13    4     8     3    1.7925E+02  6.7456E-01   1.8002E+02  1.446E+00  0.000E+00  0.000E+00  1.01239E+03  3.014E+00  4.370E+01  4.453E-01  5.049E-01
   1   13    3     8     4    1.8002E+02 -3.3454E-01   1.8180E+02  1.446E+00  0.000E+00  0.000E+00  1.00615E+03  3.022E+00  4.382E+01  4.465E+00 -2.497E-02
   1   13    2     8     5    1.8180E+02 -9.3874E-01   1.8419E+02  1.446E+00  0.000E+00  0.000E+00  9.99910E+02  3.035E+00  4.401E+01  4.484E+00 -6.978E-02
   1   13    1     8     6    1.8419E+02 -8.1773E-01   1.8587E+02  8.679E-01  0.000E+00  0.000E+00  9.94922E+02  3.047E+00  4.419E+01  2.702E+00 -1.009E-01



 UBDSV3 SAVING "     NETRECHARGE" ON UNIT 100 AT TIME STEP    10, STRESS PERIOD  10
 UBDSV3 SAVING "    NETDISCHARGE" ON UNIT 101 AT TIME STEP    10, STRESS PERIOD  10
 UBDSV3 SAVING "           GW ET" ON UNIT  61 AT TIME STEP    10, STRESS PERIOD  10
 UBDSV3 SAVING "    UZF RECHARGE" ON UNIT  61 AT TIME STEP    10, STRESS PERIOD  10
 UBDSV3 SAVING " SURFACE LEAKAGE" ON UNIT  61 AT TIME STEP    10, STRESS PERIOD  10
 UBDSV3 SAVING "       HORT+DUNN" ON UNIT  61 AT TIME STEP    10, STRESS PERIOD  10
 UBDSV3 SAVING "  STORAGE CHANGE" ON UNIT  61 AT TIME STEP    10, STRESS PERIOD  10


UNSATURATED ZONE PACKAGE VOLUMETRIC BUDGET FOR  TIME STEP    10 STRESS PERIOD   10
  ------------------------------------------------------------------------------



     CUMULATIVE VOLUMES      L**3       RATES FOR THIS TIME STEP      L**3/T
     ------------------                 ------------------------

           IN:                                      IN:
           ---                                      ---
        INFILTRATION =    72413670.2568          INFILTRATION =           2.9000

          OUT:                                     OUT:
          ----                                     ----
              UZF ET =    21695315.5832                UZF ET =           1.1603
        UZF RECHARGE =     7880960.6654          UZF RECHARGE =       0.0000E+00

            IN - OUT =    42837394.0083              IN - OUT =           1.7397

          STORAGE:                                 STORAGE:
          --------                                 --------
      STORAGE CHANGE =    42837392.5948        STORAGE CHANGE =           1.7397

 PERCENT DISCREPANCY IS DIFFERENCE BETWEEN IN-OUT MINUS CHANGE IN STORAGE
 DIVIDED BY THE AVERAGE OF IN AND OUT TIMES 100

 PERCENT DISCREPANCY =           0.00     PERCENT DISCREPANCY =           0.00






1
  VOLUMETRIC BUDGET FOR ENTIRE MODEL AT END OF TIME STEP   10, STRESS PERIOD  10
  ------------------------------------------------------------------------------

     CUMULATIVE VOLUMES      L**3       RATES FOR THIS TIME STEP      L**3/T
     ------------------                 ------------------------

           IN:                                      IN:
           ---                                      ---
             STORAGE =   436838048.0000               STORAGE =           5.2504
       CONSTANT HEAD =           0.0000         CONSTANT HEAD =           0.0000
               WELLS =           0.0000                 WELLS =           0.0000
     HEAD DEP BOUNDS =     7517773.5000       HEAD DEP BOUNDS =           0.3022
      STREAM LEAKAGE =   382626560.0000        STREAM LEAKAGE =          15.2704
        UZF RECHARGE =     7880964.5000          UZF RECHARGE =           0.0000
               GW ET =           0.0000                 GW ET =           0.0000
     SURFACE LEAKAGE =           0.0000       SURFACE LEAKAGE =           0.0000

            TOTAL IN =   834863360.0000              TOTAL IN =          20.8231

          OUT:                                     OUT:
          ----                                     ----
             STORAGE =   124600672.0000               STORAGE =          12.3719
       CONSTANT HEAD =           0.0000         CONSTANT HEAD =           0.0000
               WELLS =   499320032.0000                 WELLS =           0.0000
     HEAD DEP BOUNDS =     7074458.5000       HEAD DEP BOUNDS =           0.2746
      STREAM LEAKAGE =    62941156.0000        STREAM LEAKAGE =           2.0910
        UZF RECHARGE =           0.0000          UZF RECHARGE =           0.0000
               GW ET =   140939888.0000                 GW ET =           6.0852
     SURFACE LEAKAGE =           0.0000       SURFACE LEAKAGE =           0.0000

           TOTAL OUT =   834876224.0000             TOTAL OUT =          20.8227

            IN - OUT =      -12864.0000              IN - OUT =       3.6621E-04

 PERCENT DISCREPANCY =          -0.00     PERCENT DISCREPANCY =           0.00






         TIME SUMMARY AT END OF TIME STEP   10 IN STRESS PERIOD   10
                    SECONDS     MINUTES      HOURS       DAYS        YEARS
                    -----------------------------------------------------------
   TIME STEP LENGTH 1.95033E+05  3250.6      54.176      2.2573     6.18023E-03
 STRESS PERIOD TIME 1.31823E+06  21971.      366.18      15.257     4.17723E-02
         TOTAL TIME 2.49702E+07 4.16170E+05  6936.2      289.01     0.79126    
1
 
 SOLVING FOR HEAD 
                                                   Max.-Head-Change                         Max.-Flux-Residual
  Residual-Control   Outer-Iter.   Inner-Iter.     Column Row Layer    Maximum-Head-Change  Column Row Layer    Maximum-Flux-Residual          L2-NORM 
          0                 1           2             4    8     1       0.5618382249E-01       4    8    1         0.1211503629E+01      0.3310789751E+01
          0                 2           2             4    8     1      -0.5567386178E-02       4    8    1        -0.1211525457E+00      0.3310467900E+00
          0                 3           2             4    8     1       0.4965130718E-03       4    8    1         0.1090370903E-01      0.2979108030E-01
          0                 4           1             4    8     1      -0.3940982770E-04       4    8    1        -0.8733874786E-03      0.2386083118E-02

    ------------------------------------------------
       NWT REQUIRED            4 OUTER ITERATIONS 
       AND A TOTAL OF          7 INNER ITERATIONS.
    ------------------------------------------------

 NO OUTPUT CONTROL FOR STRESS PERIOD   10   TIME STEP   11
 
 SOLVING FOR HEAD 
                                                   Max.-Head-Change                         Max.-Flux-Residual
  Residual-Control   Outer-Iter.   Inner-Iter.     Column Row Layer    Maximum-Head-Change  Column Row Layer    Maximum-Flux-Residual          L2-NORM 
          0                 1           2             4    8     1       0.6072500944E-01       4    8    1         0.1192535861E+01      0.3243628926E+01
          0                 2           2             4    8     1      -0.6017250292E-02       4    8    1        -0.1192561771E+00      0.3243443664E+00
          0                 3           2             4    8     1       0.5364840546E-03       4    8    1         0.1073303179E-01      0.2915066485E-01
          0                 4           1             4    8     1      -0.4258245384E-04       4    8    1        -0.8597162750E-03      0.2334810946E-02

    ------------------------------------------------
       NWT REQUIRED            4 OUTER ITERATIONS 
       AND A TOTAL OF          7 INNER ITERATIONS.
    ------------------------------------------------

 NO OUTPUT CONTROL FOR STRESS PERIOD   10   TIME STEP   12
 
 SOLVING FOR HEAD 
                                                   Max.-Head-Change                         Max.-Flux-Residual
  Residual-Control   Outer-Iter.   Inner-Iter.     Column Row Layer    Maximum-Head-Change  Column Row Layer    Maximum-Flux-Residual          L2-NORM 
          0                 1           2             4    8     1       0.6550306030E-01       4    8    1         0.1171748987E+01      0.3174210838E+01
          0                 2           2             4    8     1      -0.6492970771E-02       4    8    1        -0.1171779661E+00      0.3178534093E+00
          0                 3           2             4    8     1       0.5790585564E-03       4    8    1         0.1054598879E-01      0.2860483475E-01
          0                 4           1             4    8     1      -0.4596172910E-04       4    8    1        -0.8447341438E-03      0.2291144587E-02

    ------------------------------------------------
       NWT REQUIRED            4 OUTER ITERATIONS 
       AND A TOTAL OF          7 INNER ITERATIONS.
    ------------------------------------------------

 NO OUTPUT CONTROL FOR STRESS PERIOD   10   TIME STEP   13
 
 SOLVING FOR HEAD 
                                                   Max.-Head-Change                         Max.-Flux-Residual
  Residual-Control   Outer-Iter.   Inner-Iter.     Column Row Layer    Maximum-Head-Change  Column Row Layer    Maximum-Flux-Residual          L2-NORM 
          0                 1           2             4    8     1       0.7049686085E-01       4    8    1         0.1149007004E+01      0.3102123988E+01
          0                 2           2             4    8     1      -0.6985775322E-02       4    8    1        -0.1149043330E+00      0.3102223424E+00
          0                 3           2             4    8     1       0.6230077184E-03       4    8    1         0.1034135558E-01      0.2791855597E-01
          0                 4           1             4    8     1      -0.4945011737E-04       4    8    1        -0.8283430848E-03      0.2236202776E-02

    ------------------------------------------------
       NWT REQUIRED            4 OUTER ITERATIONS 
       AND A TOTAL OF          7 INNER ITERATIONS.
    ------------------------------------------------

 NO OUTPUT CONTROL FOR STRESS PERIOD   10   TIME STEP   14
 
 SOLVING FOR HEAD 
                                                   Max.-Head-Change                         Max.-Flux-Residual
  Residual-Control   Outer-Iter.   Inner-Iter.     Column Row Layer    Maximum-Head-Change  Column Row Layer    Maximum-Flux-Residual          L2-NORM 
          0                 1           2             4    8     1       0.7569197113E-01       4    8    1         0.1124219347E+01      0.3027765795E+01
          0                 2           2             4    8     1      -0.7500612803E-02       4    8    1        -0.1124262046E+00      0.3027669491E+00
          0                 3           2             4    8     1       0.6689217578E-03       4    8    1         0.1011831775E-01      0.2724797561E-01
          0                 4           1             4    8     1      -0.5309446273E-04       4    8    1        -0.8104777889E-03      0.2182502533E-02

    ------------------------------------------------
       NWT REQUIRED            4 OUTER ITERATIONS 
       AND A TOTAL OF          7 INNER ITERATIONS.
    ------------------------------------------------

 OUTPUT CONTROL FOR STRESS PERIOD   10   TIME STEP   15
    PRINT BUDGET
    PRINT HEAD FOR ALL LAYERS
    SAVE HEAD FOR ALL LAYERS
    SAVE BUDGET

  HEAD DEP BOUNDS   PERIOD   10   STEP    15
 BOUNDARY      1   LAYER   1   ROW    13   COL     1   RATE   -0.273938    
 BOUNDARY      2   LAYER   1   ROW    14   COL     9   RATE    0.302361    



 STREAM LISTING     PERIOD     10   STEP       15

 LAYER ROW COL. STREAM  RCH.  FLOW INTO     FLOW TO   FLOW OUT OF   OVRLND.     DIRECT     STREAM       STREAM     STREAM     STREAM   STREAMBED  STREAMBED
                SEG.NO.  NO.  STRM. RCH.    AQUIFER    STRM. RCH.    RUNOFF     PRECIP       ET          HEAD       DEPTH      WIDTH   CONDCTNC.   GRADIENT

   1    1    1     1     1    2.5000E+01  2.4540E-01   2.4862E+01  1.074E-01  0.000E+00  0.000E+00  1.09423E+03  1.179E+00  1.305E+01  5.872E-02  1.393E+00
   1    2    2     1     2    2.4862E+01  3.8046E-01   2.4649E+01  1.670E-01  0.000E+00  0.000E+00  1.08924E+03  1.177E+00  1.301E+01  9.110E-02  1.392E+00
   1    3    3     1     3    2.4649E+01  3.2489E-01   2.4467E+01  1.432E-01  0.000E+00  0.000E+00  1.08359E+03  1.174E+00  1.297E+01  7.784E-02  1.391E+00
   1    3    4     1     4    2.4467E+01  2.9952E-01   2.4300E+01  1.324E-01  0.000E+00  0.000E+00  1.07858E+03  1.171E+00  1.294E+01  7.181E-02  1.390E+00
   1    4    5     2     1    1.4300E+01  0.0000E+00   1.4373E+01  7.358E-02  0.000E+00  0.000E+00  1.07280E+03  8.650E-01  1.200E+01  0.000E+00  1.288E+00
   1    5    6     2     2    1.4373E+01  0.0000E+00   1.4430E+01  5.660E-02  0.000E+00  0.000E+00  1.06738E+03  8.673E-01  1.200E+01  0.000E+00  1.289E+00
   1    6    6     2     3    1.4430E+01  0.0000E+00   1.4487E+01  5.660E-02  0.000E+00  0.000E+00  1.06266E+03  8.694E-01  1.200E+01  0.000E+00  1.290E+00
   1    7    6     2     4    1.4487E+01  0.0000E+00   1.4543E+01  5.660E-02  0.000E+00  0.000E+00  1.05795E+03  8.714E-01  1.200E+01  0.000E+00  1.290E+00
   1    8    6     2     5    1.4543E+01  0.0000E+00   1.4600E+01  5.660E-02  0.000E+00  0.000E+00  1.05323E+03  8.735E-01  1.200E+01  0.000E+00  1.291E+00
   1    3    5     3     1    1.0000E+01  2.8252E-01   1.0136E+01  4.182E-01  0.000E+00  0.000E+00  1.07555E+03  1.909E+00  9.636E+00  7.227E-02  1.955E+00
   1    3    6     3     2    1.0136E+01  2.4905E-01   1.0305E+01  4.182E-01  0.000E+00  0.000E+00  1.07264E+03  1.727E+00  8.909E+00  6.682E-02  1.864E+00
   1    3    7     3     3    1.0305E+01  1.9718E-01   1.0484E+01  3.764E-01  0.000E+00  0.000E+00  1.06987E+03  1.555E+00  8.218E+00  5.547E-02  1.777E+00
   1    4    8     3     4    1.0484E+01  2.2567E-01   1.0760E+01  5.018E-01  0.000E+00  0.000E+00  1.06682E+03  1.364E+00  7.455E+00  6.709E-02  1.682E+00
   1    5    8     3     5    1.0760E+01  1.5790E-01   1.1020E+01  4.182E-01  0.000E+00  0.000E+00  1.06362E+03  1.164E+00  6.655E+00  4.991E-02  1.582E+00
   1    6    8     3     6    1.1020E+01  5.5980E-02   1.1132E+01  1.673E-01  0.000E+00  0.000E+00  1.06158E+03  1.036E+00  6.145E+00  1.844E-02  1.518E+00
   1    5   10     4     1    1.0000E+01  0.0000E+00   1.0074E+01  7.386E-02  0.000E+00  0.000E+00  1.07837E+03  6.399E-01  1.000E+01  0.000E+00  1.213E+00
   1    5    9     4     2    1.0074E+01  0.0000E+00   1.0222E+01  1.477E-01  0.000E+00  0.000E+00  1.07155E+03  6.442E-01  1.000E+01  0.000E+00  1.215E+00
   1    6    8     4     3    1.0222E+01  0.0000E+00   1.0325E+01  1.034E-01  0.000E+00  0.000E+00  1.06383E+03  6.489E-01  1.000E+01  0.000E+00  1.216E+00
   1    6    8     5     1    2.1457E+01  3.6956E-01   2.1220E+01  1.333E-01  0.000E+00  0.000E+00  1.05888E+03  8.756E-01  2.384E+01  9.535E-02  1.292E+00
   1    7    7     5     2    2.1220E+01  4.5807E-01   2.0929E+01  1.667E-01  0.000E+00  0.000E+00  1.05437E+03  8.718E-01  2.366E+01  1.183E-01  1.291E+00
   1    8    7     5     3    2.0929E+01  3.1810E-01   2.0728E+01  1.167E-01  0.000E+00  0.000E+00  1.05012E+03  8.683E-01  2.350E+01  8.223E-02  1.289E+00
   1    8    6     5     4    2.0728E+01  2.2594E-01   2.0585E+01  8.333E-02  0.000E+00  0.000E+00  1.04712E+03  8.657E-01  2.338E+01  5.845E-02  1.289E+00
   1    9    6     6     1    3.5185E+01  0.0000E+00   3.5457E+01  2.727E-01  0.000E+00  0.000E+00  1.04423E+03  1.502E+00  1.200E+01  0.000E+00  1.501E+00
   1   10    7     6     2    3.5457E+01  0.0000E+00   3.5730E+01  2.727E-01  0.000E+00  0.000E+00  1.03969E+03  1.509E+00  1.200E+01  0.000E+00  1.503E+00
   1   11    7     6     3    3.5730E+01  0.0000E+00   3.6003E+01  2.727E-01  0.000E+00  0.000E+00  1.03515E+03  1.516E+00  1.200E+01  0.000E+00  1.505E+00
   1   12    7     6     4    3.6003E+01  0.0000E+00   3.6276E+01  2.727E-01  0.000E+00  0.000E+00  1.03061E+03  1.523E+00  1.200E+01  0.000E+00  1.508E+00
   1   13    7     6     5    3.6276E+01  0.0000E+00   3.6385E+01  1.091E-01  0.000E+00  0.000E+00  1.02744E+03  1.528E+00  1.200E+01  0.000E+00  8.967E-01
   1   14    9     7     1    1.5000E+02  1.5802E+00   1.4867E+02  2.500E-01  0.000E+00  0.000E+00  1.03987E+03  2.288E+00  5.529E+01  5.593E-01  9.418E-01
   1   13    8     7     2    1.4867E+02  2.5904E+00   1.4635E+02  2.750E-01  0.000E+00  0.000E+00  1.03478E+03  2.278E+00  5.525E+01  6.147E-01  1.405E+00
   1   13    7     7     3    1.4635E+02  2.7561E+00   1.4385E+02  2.500E-01  0.000E+00  0.000E+00  1.02968E+03  2.265E+00  5.519E+01  5.582E-01  1.646E+00
   1   13    6     8     1    1.8023E+02  2.2603E+00   1.7942E+02  1.446E+00  0.000E+00  0.000E+00  1.02489E+03  3.015E+00  4.372E+01  4.455E-01  1.691E+00
   1   13    5     8     2    1.7942E+02  1.6559E+00   1.7921E+02  1.446E+00  0.000E+00  0.000E+00  1.01864E+03  3.012E+00  4.367E+01  4.450E-01  1.240E+00
   1   13    4     8     3    1.7921E+02  6.8383E-01   1.7997E+02  1.446E+00  0.000E+00  0.000E+00  1.01239E+03  3.014E+00  4.370E+01  4.453E-01  5.119E-01
   1   13    3     8     4    1.7997E+02 -2.8204E-01   1.8170E+02  1.446E+00  0.000E+00  0.000E+00  1.00615E+03  3.021E+00  4.381E+01  4.464E+00 -2.106E-02
   1   13    2     8     5    1.8170E+02 -8.8821E-01   1.8404E+02  1.446E+00  0.000E+00  0.000E+00  9.99909E+02  3.034E+00  4.399E+01  4.483E+00 -6.604E-02
   1   13    1     8     6    1.8404E+02 -7.7641E-01   1.8568E+02  8.679E-01  0.000E+00  0.000E+00  9.94921E+02  3.046E+00  4.417E+01  2.701E+00 -9.582E-02



 UBDSV3 SAVING "     NETRECHARGE" ON UNIT 100 AT TIME STEP    15, STRESS PERIOD  10
 UBDSV3 SAVING "    NETDISCHARGE" ON UNIT 101 AT TIME STEP    15, STRESS PERIOD  10
 UBDSV3 SAVING "           GW ET" ON UNIT  61 AT TIME STEP    15, STRESS PERIOD  10
 UBDSV3 SAVING "    UZF RECHARGE" ON UNIT  61 AT TIME STEP    15, STRESS PERIOD  10
 UBDSV3 SAVING " SURFACE LEAKAGE" ON UNIT  61 AT TIME STEP    15, STRESS PERIOD  10
 UBDSV3 SAVING "       HORT+DUNN" ON UNIT  61 AT TIME STEP    15, STRESS PERIOD  10
 UBDSV3 SAVING "  STORAGE CHANGE" ON UNIT  61 AT TIME STEP    15, STRESS PERIOD  10


UNSATURATED ZONE PACKAGE VOLUMETRIC BUDGET FOR  TIME STEP    15 STRESS PERIOD   10
  ------------------------------------------------------------------------------



     CUMULATIVE VOLUMES      L**3       RATES FOR THIS TIME STEP      L**3/T
     ------------------                 ------------------------

           IN:                                      IN:
           ---                                      ---
        INFILTRATION =    76211992.6084          INFILTRATION =           2.9000

          OUT:                                     OUT:
          ----                                     ----
              UZF ET =    23226737.0045                UZF ET =           1.1749
        UZF RECHARGE =     7880960.6654          UZF RECHARGE =       0.0000E+00

            IN - OUT =    45104294.9385              IN - OUT =           1.7251

          STORAGE:                                 STORAGE:
          --------                                 --------
      STORAGE CHANGE =    45104293.5713        STORAGE CHANGE =           1.7251

 PERCENT DISCREPANCY IS DIFFERENCE BETWEEN IN-OUT MINUS CHANGE IN STORAGE
 DIVIDED BY THE AVERAGE OF IN AND OUT TIMES 100

 PERCENT DISCREPANCY =           0.00     PERCENT DISCREPANCY =           0.00






1
              HEAD IN LAYER   1 AT END OF TIME STEP    15 IN STRESS PERIOD   10
  -----------------------------------------------------------------------------

           1       2       3       4       5       6       7       8       9      10
 ...................................................................................
   1  1029.18 1025.62 6999.00 6999.00 6999.00 6999.00 6999.00 6999.00 6999.00 6999.00
   2  1025.94 1021.06 1019.00 6999.00 6999.00 1017.43 1017.71 1017.86 6999.00 6999.00
   3  6999.00 1017.98 1016.62 1015.54 1015.42 1015.98 1016.80 1017.06 6999.00 6999.00
   4  1015.97 1015.93 1014.86 1013.85 1013.51 1013.68 1014.68 1016.26 1016.04 6999.00
   5  1015.16 1014.19 1012.93 1012.29 1012.40 1012.90 1013.60 1014.48 1015.02 1015.41
   6  1014.35 1012.97 1011.35 1010.94 1011.29 1012.18 1013.22 1014.21 1014.94 1015.71
   7  1013.81 1012.05 1010.27 1010.01 1010.55 1011.68 1013.00 1013.82 1015.19 6999.00
   8  6999.00 1011.41 1009.73 1009.62 1010.30 1011.53 1012.79 1014.17 1016.13 6999.00
   9  6999.00 1010.94 1009.71 1009.84 1010.58 1011.81 1013.07 1015.01 1017.70 6999.00
  10  6999.00 1010.44 1010.01 1010.52 1011.38 1012.78 1014.11 1016.43 1019.40 1020.32
  11  6999.00 1009.21 1009.96 1011.24 1012.59 1014.44 1016.28 1019.27 1022.65 6999.00
  12  1000.72 1005.44 1008.74 1011.22 1013.74 1016.70 1019.43 1024.38 1028.34 6999.00
  13   995.21 1000.11 1006.21 1010.85 1014.92 1019.82 1024.75 1030.56 1033.64 6999.00
  14  6999.00 1005.48 1008.16 1012.00 1016.00 1020.44 1025.75 1032.05 1037.04 6999.00
  15  6999.00 6999.00 1011.66 1014.00 1017.02 1019.76 6999.00 6999.00 6999.00 6999.00

 HEAD WILL BE SAVED ON UNIT   58 AT END OF TIME STEP   15, STRESS PERIOD   10
1
  VOLUMETRIC BUDGET FOR ENTIRE MODEL AT END OF TIME STEP   15, STRESS PERIOD  10
  ------------------------------------------------------------------------------

     CUMULATIVE VOLUMES      L**3       RATES FOR THIS TIME STEP      L**3/T
     ------------------                 ------------------------

           IN:                                      IN:
           ---                                      ---
             STORAGE =   443047104.0000               STORAGE =           4.4301
       CONSTANT HEAD =           0.0000         CONSTANT HEAD =           0.0000
               WELLS =           0.0000                 WELLS =           0.0000
     HEAD DEP BOUNDS =     7913734.5000       HEAD DEP BOUNDS =           0.3024
      STREAM LEAKAGE =   402665056.0000        STREAM LEAKAGE =          15.3170
        UZF RECHARGE =     7880964.5000          UZF RECHARGE =           0.0000
               GW ET =           0.0000                 GW ET =           0.0000
     SURFACE LEAKAGE =           0.0000       SURFACE LEAKAGE =           0.0000

            TOTAL IN =   861506816.0000              TOTAL IN =          20.0495

          OUT:                                     OUT:
          ----                                     ----
             STORAGE =   140326704.0000               STORAGE =          11.7742
       CONSTANT HEAD =           0.0000         CONSTANT HEAD =           0.0000
               WELLS =   499320032.0000                 WELLS =           0.0000
     HEAD DEP BOUNDS =     7433534.5000       HEAD DEP BOUNDS =           0.2739
      STREAM LEAKAGE =    65554332.0000        STREAM LEAKAGE =           1.9467
        UZF RECHARGE =           0.0000          UZF RECHARGE =           0.0000
               GW ET =   148884704.0000                 GW ET =           6.0543
     SURFACE LEAKAGE =           0.0000       SURFACE LEAKAGE =           0.0000

           TOTAL OUT =   861519232.0000             TOTAL OUT =          20.0491

            IN - OUT =      -12416.0000              IN - OUT =       3.7575E-04

 PERCENT DISCREPANCY =          -0.00     PERCENT DISCREPANCY =           0.00






         TIME SUMMARY AT END OF TIME STEP   15 IN STRESS PERIOD   10
                    SECONDS     MINUTES      HOURS       DAYS        YEARS
                    -----------------------------------------------------------
   TIME STEP LENGTH 3.14103E+05  5235.0      87.251      3.6354     9.95332E-03
 STRESS PERIOD TIME 2.62800E+06  43800.      730.00      30.417     8.32763E-02
         TOTAL TIME 2.62800E+07 4.38000E+05  7300.0      304.17     0.83276    
1
1
                            STRESS PERIOD NO.   11, LENGTH =   2628000.    
                            -----------------------------------------------

                              NUMBER OF TIME STEPS =    15

                               MULTIPLIER FOR DELT =     1.100

                            INITIAL TIME STEP SIZE =   82713.07    

 WELL NO.  LAYER   ROW   COL   STRESS RATE         
 --------------------------------------------------
      1      1      6      4      -3.000    
      2      1      6      5      -3.000    
      3      1      7      4      -3.000    
      4      1      7      5      -3.000    
      5      1      8      4      -3.000    
      6      1      8      5      -3.000    
      7      1      9      4      -3.000    
      8      1      9      5      -3.000    
      9      1     10      4      -3.000    
     10      1     10      5      -3.000    

     10 WELLS

 REUSING NON-PARAMETER GHB CELLS FROM LAST STRESS PERIOD

      2 GHB CELLS

 REUSING STREAM SEGMENT DATA FROM LAST STRESS PERIOD



            AREAL INFILTRATION RATE
 READING ON UNIT   19 WITH FORMAT: (10F4.0)            

            1           2           3           4           5           6           7           8           9          10
 ........................................................................................................................
   1   1.0000E-09  2.0000E-09   0.000       0.000       0.000       0.000       0.000       0.000       0.000       0.000    
   2   2.0000E-09  1.0000E-09  2.0000E-09   0.000       0.000      8.0000E-09  8.0000E-09  5.0000E-09   0.000       0.000    
   3    0.000      5.0000E-09  1.0000E-09  1.0000E-09  8.0000E-09  8.0000E-09  5.0000E-09  5.0000E-09   0.000       0.000    
   4   8.0000E-09  5.0000E-09  1.0000E-09  1.0000E-09  1.0000E-09  1.0000E-09  1.0000E-09  1.0000E-09  2.0000E-09   0.000    
   5   8.0000E-09  5.0000E-09  1.0000E-09  1.0000E-09  1.0000E-09  1.0000E-09  1.0000E-09  1.0000E-09  1.0000E-09  1.0000E-09
   6   8.0000E-09  5.0000E-09  5.0000E-09  2.0000E-09  2.0000E-09  1.0000E-09  1.0000E-09  1.0000E-09  1.0000E-09  5.0000E-09
   7   8.0000E-09  5.0000E-09  5.0000E-09  2.0000E-09  2.0000E-09  1.0000E-09  1.0000E-09  2.0000E-09  2.0000E-09   0.000    
   8    0.000      5.0000E-09  5.0000E-09  2.0000E-09  2.0000E-09  1.0000E-09  1.0000E-09  2.0000E-09  5.0000E-09   0.000    
   9    0.000      5.0000E-09  5.0000E-09  2.0000E-09  2.0000E-09  1.0000E-09  1.0000E-09  2.0000E-09  5.0000E-09   0.000    
  10    0.000      5.0000E-09  5.0000E-09  2.0000E-09  2.0000E-09  1.0000E-09  1.0000E-09  2.0000E-09  5.0000E-09  8.0000E-09
  11    0.000      1.0000E-09  1.0000E-09  1.0000E-09  1.0000E-09  1.0000E-09  1.0000E-09  2.0000E-09  5.0000E-09   0.000    
  12   1.0000E-09  1.0000E-09  1.0000E-09  1.0000E-09  1.0000E-09  1.0000E-09  1.0000E-09  1.0000E-09  2.0000E-09   0.000    
  13   1.0000E-09  1.0000E-09  2.0000E-09  2.0000E-09  2.0000E-09  2.0000E-09  2.0000E-09  1.0000E-09  1.0000E-09   0.000    
  14    0.000      2.0000E-09  5.0000E-09  5.0000E-09  5.0000E-09  5.0000E-09  5.0000E-09  2.0000E-09  1.0000E-09   0.000    
  15    0.000       0.000      8.0000E-09  8.0000E-09  8.0000E-09  8.0000E-09   0.000       0.000       0.000       0.000    

USING ET RATE FROM PREVIOUS STRESS PERIOD. CURRENT PERIOD IS:      11

 USING ET EXTINCTION DEPTH FROM PREVIOUS STRESS PERIOD. CURRENT PERIOD IS:      11

 USING EXTINCTION WATER CONTENT FROM PREVIOUS STRESS PERIOD. CURRENT PERIOD IS:      11
 
 SOLVING FOR HEAD 
                                                   Max.-Head-Change                         Max.-Flux-Residual
  Residual-Control   Outer-Iter.   Inner-Iter.     Column Row Layer    Maximum-Head-Change  Column Row Layer    Maximum-Flux-Residual          L2-NORM 
          0                 1           2             5   10     1      -0.4134047529E-01       5   10    1        -0.2351669906E+01      0.6861233490E+01
          0                 2           2             5   10     1       0.4096460478E-02       5   10    1         0.2351666717E+00      0.6860808251E+00
          0                 3           2             5   10     1      -0.3653329657E-03       5   10    1        -0.2116500621E-01      0.6174332161E-01
          0                 4           1             5   10     1       0.2899763908E-04       5   10    1         0.1695317401E-02      0.4945274877E-02

    ------------------------------------------------
       NWT REQUIRED            4 OUTER ITERATIONS 
       AND A TOTAL OF          7 INNER ITERATIONS.
    ------------------------------------------------

 NO OUTPUT CONTROL FOR STRESS PERIOD   11   TIME STEP    1
 
 SOLVING FOR HEAD 
                                                   Max.-Head-Change                         Max.-Flux-Residual
  Residual-Control   Outer-Iter.   Inner-Iter.     Column Row Layer    Maximum-Head-Change  Column Row Layer    Maximum-Flux-Residual          L2-NORM 
          0                 1           2             5   10     1      -0.4393982770E-01       5   10    1        -0.2277341560E+01      0.6735039397E+01
          0                 2           2             5   10     1       0.4354031947E-02       5   10    1         0.2277338259E+00      0.6734622835E+00
          0                 3           2             5   10     1      -0.3883038615E-03       5   10    1        -0.2049605011E-01      0.6060777621E-01
          0                 4           1             5   10     1       0.3082091203E-04       5   10    1         0.1641733995E-02      0.4854328538E-02

    ------------------------------------------------
       NWT REQUIRED            4 OUTER ITERATIONS 
       AND A TOTAL OF          7 INNER ITERATIONS.
    ------------------------------------------------

 NO OUTPUT CONTROL FOR STRESS PERIOD   11   TIME STEP    2
 
 SOLVING FOR HEAD 
                                                   Max.-Head-Change                         Max.-Flux-Residual
  Residual-Control   Outer-Iter.   Inner-Iter.     Column Row Layer    Maximum-Head-Change  Column Row Layer    Maximum-Flux-Residual          L2-NORM 
          0                 1           2             5    6     1      -0.4666978670E-01       5   10    1        -0.2200478912E+01      0.6604043593E+01
          0                 2           2             5    6     1       0.4624544969E-02       5   10    1         0.2200475469E+00      0.6603638205E+00
          0                 3           2             5    6     1      -0.4124289210E-03       5   10    1        -0.1980428506E-01      0.5942909783E-01
          0                 4           1             5    6     1       0.3273579485E-04       5   10    1         0.1586323623E-02      0.4759932626E-02

    ------------------------------------------------
       NWT REQUIRED            4 OUTER ITERATIONS 
       AND A TOTAL OF          7 INNER ITERATIONS.
    ------------------------------------------------

 NO OUTPUT CONTROL FOR STRESS PERIOD   11   TIME STEP    3
 
 SOLVING FOR HEAD 
                                                   Max.-Head-Change                         Max.-Flux-Residual
  Residual-Control   Outer-Iter.   Inner-Iter.     Column Row Layer    Maximum-Head-Change  Column Row Layer    Maximum-Flux-Residual          L2-NORM 
          0                 1           2             4   10     1      -0.4953040972E-01       5    6    1        -0.2124510758E+01      0.6468658769E+01
          0                 2           2             4   10     1       0.4907489741E-02       5    6    1         0.2124506575E+00      0.6463428111E+00
          0                 3           2             4   10     1      -0.4376630303E-03       5    6    1        -0.1912056566E-01      0.5816741214E-01
          0                 4           1             4   10     1       0.3473870336E-04       5    6    1         0.1531557678E-02      0.4658907889E-02

    ------------------------------------------------
       NWT REQUIRED            4 OUTER ITERATIONS 
       AND A TOTAL OF          7 INNER ITERATIONS.
    ------------------------------------------------

 NO OUTPUT CONTROL FOR STRESS PERIOD   11   TIME STEP    4
 
 SOLVING FOR HEAD 
                                                   Max.-Head-Change                         Max.-Flux-Residual
  Residual-Control   Outer-Iter.   Inner-Iter.     Column Row Layer    Maximum-Head-Change  Column Row Layer    Maximum-Flux-Residual          L2-NORM 
          0                 1           2             4   10     1      -0.5306278023E-01       4   10    1        -0.2048953044E+01      0.6329783356E+01
          0                 2           2             4   10     1       0.5257985374E-02       4   10    1         0.2048926385E+00      0.6329416519E+00
          0                 3           2             4   10     1      -0.4689212392E-03       4   10    1        -0.1844036594E-01      0.5696153821E-01
          0                 4           1             4   10     1       0.3721976595E-04       4   10    1         0.1477073484E-02      0.4562351749E-02

    ------------------------------------------------
       NWT REQUIRED            4 OUTER ITERATIONS 
       AND A TOTAL OF          7 INNER ITERATIONS.
    ------------------------------------------------

 OUTPUT CONTROL FOR STRESS PERIOD   11   TIME STEP    5
    PRINT BUDGET
    SAVE BUDGET

            WELLS   PERIOD   11   STEP   5
 WELL      1   LAYER   1   ROW     6   COL     4   RATE    -3.00000    
 WELL      2   LAYER   1   ROW     6   COL     5   RATE    -3.00000    
 WELL      3   LAYER   1   ROW     7   COL     4   RATE    -3.00000    
 WELL      4   LAYER   1   ROW     7   COL     5   RATE    -3.00000    
 WELL      5   LAYER   1   ROW     8   COL     4   RATE    -3.00000    
 WELL      6   LAYER   1   ROW     8   COL     5   RATE    -3.00000    
 WELL      7   LAYER   1   ROW     9   COL     4   RATE    -3.00000    
 WELL      8   LAYER   1   ROW     9   COL     5   RATE    -3.00000    
 WELL      9   LAYER   1   ROW    10   COL     4   RATE    -3.00000    
 WELL     10   LAYER   1   ROW    10   COL     5   RATE    -3.00000    

  HEAD DEP BOUNDS   PERIOD   11   STEP     5
 BOUNDARY      1   LAYER   1   ROW    13   COL     1   RATE   -0.273399    
 BOUNDARY      2   LAYER   1   ROW    14   COL     9   RATE    0.302407    



 STREAM LISTING     PERIOD     11   STEP        5

 LAYER ROW COL. STREAM  RCH.  FLOW INTO     FLOW TO   FLOW OUT OF   OVRLND.     DIRECT     STREAM       STREAM     STREAM     STREAM   STREAMBED  STREAMBED
                SEG.NO.  NO.  STRM. RCH.    AQUIFER    STRM. RCH.    RUNOFF     PRECIP       ET          HEAD       DEPTH      WIDTH   CONDCTNC.   GRADIENT

   1    1    1     1     1    2.5000E+01  2.4523E-01   2.4789E+01  3.416E-02  0.000E+00  0.000E+00  1.09423E+03  1.179E+00  1.304E+01  5.869E-02  1.393E+00
   1    2    2     1     2    2.4789E+01  3.7953E-01   2.4463E+01  5.315E-02  0.000E+00  0.000E+00  1.08923E+03  1.175E+00  1.299E+01  9.091E-02  1.392E+00
   1    3    3     1     3    2.4463E+01  3.2343E-01   2.4185E+01  4.555E-02  0.000E+00  0.000E+00  1.08359E+03  1.170E+00  1.293E+01  7.756E-02  1.390E+00
   1    3    4     1     4    2.4185E+01  2.9763E-01   2.3929E+01  4.214E-02  0.000E+00  0.000E+00  1.07857E+03  1.166E+00  1.287E+01  7.144E-02  1.389E+00
   1    4    5     2     1    1.3929E+01  0.0000E+00   1.3929E+01  0.000E+00  0.000E+00  0.000E+00  1.07278E+03  8.502E-01  1.200E+01  0.000E+00  1.283E+00
   1    5    6     2     2    1.3929E+01  0.0000E+00   1.3929E+01  0.000E+00  0.000E+00  0.000E+00  1.06736E+03  8.502E-01  1.200E+01  0.000E+00  1.283E+00
   1    6    6     2     3    1.3929E+01  0.0000E+00   1.3929E+01  0.000E+00  0.000E+00  0.000E+00  1.06264E+03  8.502E-01  1.200E+01  0.000E+00  1.283E+00
   1    7    6     2     4    1.3929E+01  0.0000E+00   1.3929E+01  0.000E+00  0.000E+00  0.000E+00  1.05793E+03  8.502E-01  1.200E+01  0.000E+00  1.283E+00
   1    8    6     2     5    1.3929E+01  0.0000E+00   1.3929E+01  0.000E+00  0.000E+00  0.000E+00  1.05321E+03  8.502E-01  1.200E+01  0.000E+00  1.283E+00
   1    3    5     3     1    1.0000E+01  2.8252E-01   9.9038E+00  1.864E-01  0.000E+00  0.000E+00  1.07555E+03  1.909E+00  9.636E+00  7.227E-02  1.955E+00
   1    3    6     3     2    9.9038E+00  2.4905E-01   9.8412E+00  1.864E-01  0.000E+00  0.000E+00  1.07264E+03  1.727E+00  8.909E+00  6.682E-02  1.864E+00
   1    3    7     3     3    9.8412E+00  1.9718E-01   9.8117E+00  1.677E-01  0.000E+00  0.000E+00  1.06987E+03  1.555E+00  8.218E+00  5.547E-02  1.777E+00
   1    4    8     3     4    9.8117E+00  2.2567E-01   9.8097E+00  2.236E-01  0.000E+00  0.000E+00  1.06682E+03  1.364E+00  7.455E+00  6.709E-02  1.682E+00
   1    5    8     3     5    9.8097E+00  1.5790E-01   9.8381E+00  1.864E-01  0.000E+00  0.000E+00  1.06362E+03  1.164E+00  6.655E+00  4.991E-02  1.582E+00
   1    6    8     3     6    9.8381E+00  5.5980E-02   9.8567E+00  7.455E-02  0.000E+00  0.000E+00  1.06158E+03  1.036E+00  6.145E+00  1.844E-02  1.518E+00
   1    5   10     4     1    1.0000E+01  0.0000E+00   1.0023E+01  2.273E-02  0.000E+00  0.000E+00  1.07837E+03  6.389E-01  1.000E+01  0.000E+00  1.213E+00
   1    5    9     4     2    1.0023E+01  0.0000E+00   1.0068E+01  4.545E-02  0.000E+00  0.000E+00  1.07155E+03  6.403E-01  1.000E+01  0.000E+00  1.213E+00
   1    6    8     4     3    1.0068E+01  0.0000E+00   1.0100E+01  3.182E-02  0.000E+00  0.000E+00  1.06382E+03  6.417E-01  1.000E+01  0.000E+00  1.214E+00
   1    6    8     5     1    1.9957E+01  3.5132E-01   1.9652E+01  4.667E-02  0.000E+00  0.000E+00  1.05885E+03  8.531E-01  2.280E+01  9.118E-02  1.284E+00
   1    7    7     5     2    1.9652E+01  4.3403E-01   1.9276E+01  5.833E-02  0.000E+00  0.000E+00  1.05435E+03  8.479E-01  2.256E+01  1.128E-01  1.283E+00
   1    8    7     5     3    1.9276E+01  3.0046E-01   1.9017E+01  4.083E-02  0.000E+00  0.000E+00  1.05009E+03  8.430E-01  2.234E+01  7.818E-02  1.281E+00
   1    8    6     5     4    1.9017E+01  2.1293E-01   1.8833E+01  2.917E-02  0.000E+00  0.000E+00  1.04709E+03  8.396E-01  2.218E+01  5.546E-02  1.280E+00
   1    9    6     6     1    3.2762E+01  0.0000E+00   3.2864E+01  1.023E-01  0.000E+00  0.000E+00  1.04416E+03  1.437E+00  1.200E+01  0.000E+00  1.479E+00
   1   10    7     6     2    3.2864E+01  0.0000E+00   3.2967E+01  1.023E-01  0.000E+00  0.000E+00  1.03962E+03  1.440E+00  1.200E+01  0.000E+00  1.480E+00
   1   11    7     6     3    3.2967E+01  0.0000E+00   3.3069E+01  1.023E-01  0.000E+00  0.000E+00  1.03508E+03  1.443E+00  1.200E+01  0.000E+00  1.481E+00
   1   12    7     6     4    3.3069E+01  0.0000E+00   3.3171E+01  1.023E-01  0.000E+00  0.000E+00  1.03054E+03  1.446E+00  1.200E+01  0.000E+00  1.482E+00
   1   13    7     6     5    3.3171E+01  0.0000E+00   3.3212E+01  4.091E-02  0.000E+00  0.000E+00  1.02736E+03  1.447E+00  1.200E+01  0.000E+00  8.723E-01
   1   14    9     7     1    1.5000E+02  1.5806E+00   1.4851E+02  8.871E-02  0.000E+00  0.000E+00  1.03987E+03  2.287E+00  5.529E+01  5.593E-01  9.420E-01
   1   13    8     7     2    1.4851E+02  2.5918E+00   1.4601E+02  9.758E-02  0.000E+00  0.000E+00  1.03478E+03  2.277E+00  5.525E+01  6.146E-01  1.406E+00
   1   13    7     7     3    1.4601E+02  2.7584E+00   1.4334E+02  8.871E-02  0.000E+00  0.000E+00  1.02968E+03  2.263E+00  5.518E+01  5.581E-01  1.648E+00
   1   13    6     8     1    1.7656E+02  2.2346E+00   1.7492E+02  6.027E-01  0.000E+00  0.000E+00  1.02486E+03  2.989E+00  4.334E+01  4.417E-01  1.686E+00
   1   13    5     8     2    1.7492E+02  1.6282E+00   1.7390E+02  6.027E-01  0.000E+00  0.000E+00  1.01861E+03  2.981E+00  4.322E+01  4.404E-01  1.232E+00
   1   13    4     8     3    1.7390E+02  6.6357E-01   1.7384E+02  6.027E-01  0.000E+00  0.000E+00  1.01235E+03  2.977E+00  4.317E+01  4.399E-01  5.028E-01
   1   13    3     8     4    1.7384E+02 -3.8887E-01   1.7483E+02  6.027E-01  0.000E+00  0.000E+00  1.00611E+03  2.980E+00  4.321E+01  4.404E+00 -2.944E-02
   1   13    2     8     5    1.7483E+02 -1.0011E+00   1.7643E+02  6.027E-01  0.000E+00  0.000E+00  9.99864E+02  2.989E+00  4.333E+01  4.416E+00 -7.557E-02
   1   13    1     8     6    1.7643E+02 -8.5631E-01   1.7765E+02  3.616E-01  0.000E+00  0.000E+00  9.94872E+02  2.997E+00  4.346E+01  2.657E+00 -1.074E-01



 UBDSV3 SAVING "     NETRECHARGE" ON UNIT 100 AT TIME STEP     5, STRESS PERIOD  11
 UBDSV3 SAVING "    NETDISCHARGE" ON UNIT 101 AT TIME STEP     5, STRESS PERIOD  11
 UBDSV3 SAVING "           GW ET" ON UNIT  61 AT TIME STEP     5, STRESS PERIOD  11
 UBDSV3 SAVING "    UZF RECHARGE" ON UNIT  61 AT TIME STEP     5, STRESS PERIOD  11
 UBDSV3 SAVING " SURFACE LEAKAGE" ON UNIT  61 AT TIME STEP     5, STRESS PERIOD  11
 UBDSV3 SAVING "       HORT+DUNN" ON UNIT  61 AT TIME STEP     5, STRESS PERIOD  11
 UBDSV3 SAVING "  STORAGE CHANGE" ON UNIT  61 AT TIME STEP     5, STRESS PERIOD  11


UNSATURATED ZONE PACKAGE VOLUMETRIC BUDGET FOR  TIME STEP     5 STRESS PERIOD   11
  ------------------------------------------------------------------------------



     CUMULATIVE VOLUMES      L**3       RATES FOR THIS TIME STEP      L**3/T
     ------------------                 ------------------------

           IN:                                      IN:
           ---                                      ---
        INFILTRATION =    77676410.1680          INFILTRATION =           2.9000

          OUT:                                     OUT:
          ----                                     ----
              UZF ET =    23818468.4354                UZF ET =           1.1723
        UZF RECHARGE =     7880960.6654          UZF RECHARGE =       0.0000E+00

            IN - OUT =    45976981.0671              IN - OUT =           1.7277

          STORAGE:                                 STORAGE:
          --------                                 --------
      STORAGE CHANGE =    45976979.6818        STORAGE CHANGE =           1.7277

 PERCENT DISCREPANCY IS DIFFERENCE BETWEEN IN-OUT MINUS CHANGE IN STORAGE
 DIVIDED BY THE AVERAGE OF IN AND OUT TIMES 100

 PERCENT DISCREPANCY =           0.00     PERCENT DISCREPANCY =           0.00






1
  VOLUMETRIC BUDGET FOR ENTIRE MODEL AT END OF TIME STEP    5, STRESS PERIOD  11
  ------------------------------------------------------------------------------

     CUMULATIVE VOLUMES      L**3       RATES FOR THIS TIME STEP      L**3/T
     ------------------                 ------------------------

           IN:                                      IN:
           ---                                      ---
             STORAGE =   455676544.0000               STORAGE =          24.1522
       CONSTANT HEAD =           0.0000         CONSTANT HEAD =           0.0000
               WELLS =           0.0000                 WELLS =           0.0000
     HEAD DEP BOUNDS =     8066432.0000       HEAD DEP BOUNDS =           0.3024
      STREAM LEAKAGE =   410321632.0000        STREAM LEAKAGE =          15.1699
        UZF RECHARGE =     7880964.5000          UZF RECHARGE =           0.0000
               GW ET =           0.0000                 GW ET =           0.0000
     SURFACE LEAKAGE =           0.0000       SURFACE LEAKAGE =           0.0000

            TOTAL IN =   881945600.0000              TOTAL IN =          39.6245

          OUT:                                     OUT:
          ----                                     ----
             STORAGE =   141259024.0000               STORAGE =           1.0662
       CONSTANT HEAD =           0.0000         CONSTANT HEAD =           0.0000
               WELLS =   514469152.0000                 WELLS =          30.0000
     HEAD DEP BOUNDS =     7571696.0000       HEAD DEP BOUNDS =           0.2734
      STREAM LEAKAGE =    66721216.0000        STREAM LEAKAGE =           2.2463
        UZF RECHARGE =           0.0000          UZF RECHARGE =           0.0000
               GW ET =   151937472.0000                 GW ET =           6.0397
     SURFACE LEAKAGE =           0.0000       SURFACE LEAKAGE =           0.0000

           TOTAL OUT =   881958592.0000             TOTAL OUT =          39.6256

            IN - OUT =      -12992.0000              IN - OUT =      -1.1673E-03

 PERCENT DISCREPANCY =          -0.00     PERCENT DISCREPANCY =          -0.00






         TIME SUMMARY AT END OF TIME STEP    5 IN STRESS PERIOD   11
                    SECONDS     MINUTES      HOURS       DAYS        YEARS
                    -----------------------------------------------------------
   TIME STEP LENGTH 1.21100E+05  2018.3      33.639      1.4016     3.83743E-03
 STRESS PERIOD TIME 5.04972E+05  8416.2      140.27      5.8446     1.60016E-02
         TOTAL TIME 2.67850E+07 4.46416E+05  7440.3      310.01     0.84876    
1
 
 SOLVING FOR HEAD 
                                                   Max.-Head-Change                         Max.-Flux-Residual
  Residual-Control   Outer-Iter.   Inner-Iter.     Column Row Layer    Maximum-Head-Change  Column Row Layer    Maximum-Flux-Residual          L2-NORM 
          0                 1           2             4   10     1      -0.5673073647E-01       4   10    1        -0.1995503674E+01      0.6187630813E+01
          0                 2           2             4   10     1       0.5621432984E-02       4   10    1         0.1995473175E+00      0.6187284161E+00
          0                 3           2             4   10     1      -0.5013345684E-03       4   10    1        -0.1795929074E-01      0.5568261529E-01
          0                 4           1             4   10     1       0.3979251408E-04       4   10    1         0.1438539315E-02      0.4459936405E-02

    ------------------------------------------------
       NWT REQUIRED            4 OUTER ITERATIONS 
       AND A TOTAL OF          7 INNER ITERATIONS.
    ------------------------------------------------

 NO OUTPUT CONTROL FOR STRESS PERIOD   11   TIME STEP    6
 
 SOLVING FOR HEAD 
                                                   Max.-Head-Change                         Max.-Flux-Residual
  Residual-Control   Outer-Iter.   Inner-Iter.     Column Row Layer    Maximum-Head-Change  Column Row Layer    Maximum-Flux-Residual          L2-NORM 
          0                 1           2             4    9     1      -0.6148735970E-01       4   10    1        -0.1939494913E+01      0.6042741306E+01
          0                 2           2             4    9     1       0.6092811607E-02       4   10    1         0.1939460213E+00      0.6042416039E+00
          0                 3           2             4    9     1      -0.5433729288E-03       4   10    1        -0.1745517815E-01      0.5437910520E-01
          0                 4           1             4    9     1       0.4312923519E-04       4   10    1         0.1398159851E-02      0.4355526551E-02

    ------------------------------------------------
       NWT REQUIRED            4 OUTER ITERATIONS 
       AND A TOTAL OF          7 INNER ITERATIONS.
    ------------------------------------------------

 NO OUTPUT CONTROL FOR STRESS PERIOD   11   TIME STEP    7
 
 SOLVING FOR HEAD 
                                                   Max.-Head-Change                         Max.-Flux-Residual
  Residual-Control   Outer-Iter.   Inner-Iter.     Column Row Layer    Maximum-Head-Change  Column Row Layer    Maximum-Flux-Residual          L2-NORM 
          0                 1           2             4    9     1      -0.6696685931E-01       4    9    1        -0.1910811284E+01      0.5895731860E+01
          0                 2           2             4    9     1       0.6635764548E-02       4    9    1         0.1910796443E+00      0.5895428112E+00
          0                 3           2             4    9     1      -0.5917950286E-03       4    9    1        -0.1719718469E-01      0.5305651104E-01
          0                 4           1             4    9     1       0.4697265040E-04       4    9    1         0.1377494727E-02      0.4249642041E-02

    ------------------------------------------------
       NWT REQUIRED            4 OUTER ITERATIONS 
       AND A TOTAL OF          7 INNER ITERATIONS.
    ------------------------------------------------

 NO OUTPUT CONTROL FOR STRESS PERIOD   11   TIME STEP    8
 
 SOLVING FOR HEAD 
                                                   Max.-Head-Change                         Max.-Flux-Residual
  Residual-Control   Outer-Iter.   Inner-Iter.     Column Row Layer    Maximum-Head-Change  Column Row Layer    Maximum-Flux-Residual          L2-NORM 
          0                 1           2             4    9     1      -0.7279531199E-01       4    9    1        -0.1891905506E+01      0.5747265098E+01
          0                 2           2             4    9     1       0.7213289432E-02       4    9    1         0.1891884847E+00      0.5746982636E+00
          0                 3           2             4    9     1      -0.6433004044E-03       4    9    1        -0.1702698603E-01      0.5172087755E-01
          0                 4           1             4    9     1       0.5106079379E-04       4    9    1         0.1363861756E-02      0.4142699294E-02

    ------------------------------------------------
       NWT REQUIRED            4 OUTER ITERATIONS 
       AND A TOTAL OF          7 INNER ITERATIONS.
    ------------------------------------------------

 NO OUTPUT CONTROL FOR STRESS PERIOD   11   TIME STEP    9
 
 SOLVING FOR HEAD 
                                                   Max.-Head-Change                         Max.-Flux-Residual
  Residual-Control   Outer-Iter.   Inner-Iter.     Column Row Layer    Maximum-Head-Change  Column Row Layer    Maximum-Flux-Residual          L2-NORM 
          0                 1           2             4    9     1      -0.7896275106E-01       4    9    1        -0.1869604076E+01      0.5597964886E+01
          0                 2           2             4    9     1       0.7823495670E-02       4    9    1         0.1869576354E+00      0.5594023852E+00
          0                 3           2             4    9     1      -0.6977204509E-03       4    9    1        -0.1682621689E-01      0.5034454429E-01
          0                 4           1             4    9     1       0.5538028395E-04       4    9    1         0.1347780092E-02      0.4032536230E-02

    ------------------------------------------------
       NWT REQUIRED            4 OUTER ITERATIONS 
       AND A TOTAL OF          7 INNER ITERATIONS.
    ------------------------------------------------

 OUTPUT CONTROL FOR STRESS PERIOD   11   TIME STEP   10
    PRINT BUDGET
    SAVE BUDGET

            WELLS   PERIOD   11   STEP  10
 WELL      1   LAYER   1   ROW     6   COL     4   RATE    -3.00000    
 WELL      2   LAYER   1   ROW     6   COL     5   RATE    -3.00000    
 WELL      3   LAYER   1   ROW     7   COL     4   RATE    -3.00000    
 WELL      4   LAYER   1   ROW     7   COL     5   RATE    -3.00000    
 WELL      5   LAYER   1   ROW     8   COL     4   RATE    -3.00000    
 WELL      6   LAYER   1   ROW     8   COL     5   RATE    -3.00000    
 WELL      7   LAYER   1   ROW     9   COL     4   RATE    -3.00000    
 WELL      8   LAYER   1   ROW     9   COL     5   RATE    -3.00000    
 WELL      9   LAYER   1   ROW    10   COL     4   RATE    -3.00000    
 WELL     10   LAYER   1   ROW    10   COL     5   RATE    -3.00000    

  HEAD DEP BOUNDS   PERIOD   11   STEP    10
 BOUNDARY      1   LAYER   1   ROW    13   COL     1   RATE   -0.272776    
 BOUNDARY      2   LAYER   1   ROW    14   COL     9   RATE    0.302482    



 STREAM LISTING     PERIOD     11   STEP       10

 LAYER ROW COL. STREAM  RCH.  FLOW INTO     FLOW TO   FLOW OUT OF   OVRLND.     DIRECT     STREAM       STREAM     STREAM     STREAM   STREAMBED  STREAMBED
                SEG.NO.  NO.  STRM. RCH.    AQUIFER    STRM. RCH.    RUNOFF     PRECIP       ET          HEAD       DEPTH      WIDTH   CONDCTNC.   GRADIENT

   1    1    1     1     1    2.5000E+01  2.4523E-01   2.4789E+01  3.416E-02  0.000E+00  0.000E+00  1.09423E+03  1.179E+00  1.304E+01  5.869E-02  1.393E+00
   1    2    2     1     2    2.4789E+01  3.7953E-01   2.4463E+01  5.315E-02  0.000E+00  0.000E+00  1.08923E+03  1.175E+00  1.299E+01  9.091E-02  1.392E+00
   1    3    3     1     3    2.4463E+01  3.2343E-01   2.4185E+01  4.555E-02  0.000E+00  0.000E+00  1.08359E+03  1.170E+00  1.293E+01  7.756E-02  1.390E+00
   1    3    4     1     4    2.4185E+01  2.9763E-01   2.3929E+01  4.214E-02  0.000E+00  0.000E+00  1.07857E+03  1.166E+00  1.287E+01  7.144E-02  1.389E+00
   1    4    5     2     1    1.3929E+01  0.0000E+00   1.3929E+01  0.000E+00  0.000E+00  0.000E+00  1.07278E+03  8.502E-01  1.200E+01  0.000E+00  1.283E+00
   1    5    6     2     2    1.3929E+01  0.0000E+00   1.3929E+01  0.000E+00  0.000E+00  0.000E+00  1.06736E+03  8.502E-01  1.200E+01  0.000E+00  1.283E+00
   1    6    6     2     3    1.3929E+01  0.0000E+00   1.3929E+01  0.000E+00  0.000E+00  0.000E+00  1.06264E+03  8.502E-01  1.200E+01  0.000E+00  1.283E+00
   1    7    6     2     4    1.3929E+01  0.0000E+00   1.3929E+01  0.000E+00  0.000E+00  0.000E+00  1.05793E+03  8.502E-01  1.200E+01  0.000E+00  1.283E+00
   1    8    6     2     5    1.3929E+01  0.0000E+00   1.3929E+01  0.000E+00  0.000E+00  0.000E+00  1.05321E+03  8.502E-01  1.200E+01  0.000E+00  1.283E+00
   1    3    5     3     1    1.0000E+01  2.8252E-01   9.9038E+00  1.864E-01  0.000E+00  0.000E+00  1.07555E+03  1.909E+00  9.636E+00  7.227E-02  1.955E+00
   1    3    6     3     2    9.9038E+00  2.4905E-01   9.8412E+00  1.864E-01  0.000E+00  0.000E+00  1.07264E+03  1.727E+00  8.909E+00  6.682E-02  1.864E+00
   1    3    7     3     3    9.8412E+00  1.9718E-01   9.8117E+00  1.677E-01  0.000E+00  0.000E+00  1.06987E+03  1.555E+00  8.218E+00  5.547E-02  1.777E+00
   1    4    8     3     4    9.8117E+00  2.2567E-01   9.8097E+00  2.236E-01  0.000E+00  0.000E+00  1.06682E+03  1.364E+00  7.455E+00  6.709E-02  1.682E+00
   1    5    8     3     5    9.8097E+00  1.5790E-01   9.8381E+00  1.864E-01  0.000E+00  0.000E+00  1.06362E+03  1.164E+00  6.655E+00  4.991E-02  1.582E+00
   1    6    8     3     6    9.8381E+00  5.5980E-02   9.8567E+00  7.455E-02  0.000E+00  0.000E+00  1.06158E+03  1.036E+00  6.145E+00  1.844E-02  1.518E+00
   1    5   10     4     1    1.0000E+01  0.0000E+00   1.0023E+01  2.273E-02  0.000E+00  0.000E+00  1.07837E+03  6.389E-01  1.000E+01  0.000E+00  1.213E+00
   1    5    9     4     2    1.0023E+01  0.0000E+00   1.0068E+01  4.545E-02  0.000E+00  0.000E+00  1.07155E+03  6.403E-01  1.000E+01  0.000E+00  1.213E+00
   1    6    8     4     3    1.0068E+01  0.0000E+00   1.0100E+01  3.182E-02  0.000E+00  0.000E+00  1.06382E+03  6.417E-01  1.000E+01  0.000E+00  1.214E+00
   1    6    8     5     1    1.9957E+01  3.5132E-01   1.9652E+01  4.667E-02  0.000E+00  0.000E+00  1.05885E+03  8.531E-01  2.280E+01  9.118E-02  1.284E+00
   1    7    7     5     2    1.9652E+01  4.3403E-01   1.9276E+01  5.833E-02  0.000E+00  0.000E+00  1.05435E+03  8.479E-01  2.256E+01  1.128E-01  1.283E+00
   1    8    7     5     3    1.9276E+01  3.0046E-01   1.9017E+01  4.083E-02  0.000E+00  0.000E+00  1.05009E+03  8.430E-01  2.234E+01  7.818E-02  1.281E+00
   1    8    6     5     4    1.9017E+01  2.1293E-01   1.8833E+01  2.917E-02  0.000E+00  0.000E+00  1.04709E+03  8.396E-01  2.218E+01  5.546E-02  1.280E+00
   1    9    6     6     1    3.2762E+01  0.0000E+00   3.2864E+01  1.023E-01  0.000E+00  0.000E+00  1.04416E+03  1.437E+00  1.200E+01  0.000E+00  1.479E+00
   1   10    7     6     2    3.2864E+01  0.0000E+00   3.2967E+01  1.023E-01  0.000E+00  0.000E+00  1.03962E+03  1.440E+00  1.200E+01  0.000E+00  1.480E+00
   1   11    7     6     3    3.2967E+01  0.0000E+00   3.3069E+01  1.023E-01  0.000E+00  0.000E+00  1.03508E+03  1.443E+00  1.200E+01  0.000E+00  1.481E+00
   1   12    7     6     4    3.3069E+01  0.0000E+00   3.3171E+01  1.023E-01  0.000E+00  0.000E+00  1.03054E+03  1.446E+00  1.200E+01  0.000E+00  1.482E+00
   1   13    7     6     5    3.3171E+01  0.0000E+00   3.3212E+01  4.091E-02  0.000E+00  0.000E+00  1.02736E+03  1.447E+00  1.200E+01  0.000E+00  8.761E-01
   1   14    9     7     1    1.5000E+02  1.5817E+00   1.4851E+02  8.871E-02  0.000E+00  0.000E+00  1.03987E+03  2.287E+00  5.529E+01  5.593E-01  9.427E-01
   1   13    8     7     2    1.4851E+02  2.5956E+00   1.4601E+02  9.758E-02  0.000E+00  0.000E+00  1.03478E+03  2.277E+00  5.525E+01  6.146E-01  1.408E+00
   1   13    7     7     3    1.4601E+02  2.7647E+00   1.4333E+02  8.871E-02  0.000E+00  0.000E+00  1.02968E+03  2.263E+00  5.518E+01  5.581E-01  1.651E+00
   1   13    6     8     1    1.7655E+02  2.2414E+00   1.7491E+02  6.027E-01  0.000E+00  0.000E+00  1.02486E+03  2.989E+00  4.334E+01  4.417E-01  1.692E+00
   1   13    5     8     2    1.7491E+02  1.6317E+00   1.7388E+02  6.027E-01  0.000E+00  0.000E+00  1.01861E+03  2.981E+00  4.322E+01  4.404E-01  1.235E+00
   1   13    4     8     3    1.7388E+02  6.6910E-01   1.7381E+02  6.027E-01  0.000E+00  0.000E+00  1.01235E+03  2.977E+00  4.317E+01  4.399E-01  5.070E-01
   1   13    3     8     4    1.7381E+02 -3.2695E-01   1.7474E+02  6.027E-01  0.000E+00  0.000E+00  1.00610E+03  2.980E+00  4.321E+01  4.403E+00 -2.475E-02
   1   13    2     8     5    1.7474E+02 -9.3435E-01   1.7628E+02  6.027E-01  0.000E+00  0.000E+00  9.99863E+02  2.988E+00  4.332E+01  4.415E+00 -7.055E-02
   1   13    1     8     6    1.7628E+02 -8.1537E-01   1.7745E+02  3.616E-01  0.000E+00  0.000E+00  9.94871E+02  2.996E+00  4.345E+01  2.656E+00 -1.023E-01



 UBDSV3 SAVING "     NETRECHARGE" ON UNIT 100 AT TIME STEP    10, STRESS PERIOD  11
 UBDSV3 SAVING "    NETDISCHARGE" ON UNIT 101 AT TIME STEP    10, STRESS PERIOD  11
 UBDSV3 SAVING "           GW ET" ON UNIT  61 AT TIME STEP    10, STRESS PERIOD  11
 UBDSV3 SAVING "    UZF RECHARGE" ON UNIT  61 AT TIME STEP    10, STRESS PERIOD  11
 UBDSV3 SAVING " SURFACE LEAKAGE" ON UNIT  61 AT TIME STEP    10, STRESS PERIOD  11
 UBDSV3 SAVING "       HORT+DUNN" ON UNIT  61 AT TIME STEP    10, STRESS PERIOD  11
 UBDSV3 SAVING "  STORAGE CHANGE" ON UNIT  61 AT TIME STEP    10, STRESS PERIOD  11


UNSATURATED ZONE PACKAGE VOLUMETRIC BUDGET FOR  TIME STEP    10 STRESS PERIOD   11
  ------------------------------------------------------------------------------



     CUMULATIVE VOLUMES      L**3       RATES FOR THIS TIME STEP      L**3/T
     ------------------                 ------------------------

           IN:                                      IN:
           ---                                      ---
        INFILTRATION =    80034869.4355          INFILTRATION =           2.9000

          OUT:                                     OUT:
          ----                                     ----
              UZF ET =    24770072.7619                UZF ET =           1.1603
        UZF RECHARGE =     7880960.6654          UZF RECHARGE =       0.0000E+00

            IN - OUT =    47383836.0083              IN - OUT =           1.7397

          STORAGE:                                 STORAGE:
          --------                                 --------
      STORAGE CHANGE =    47383834.6019        STORAGE CHANGE =           1.7397

 PERCENT DISCREPANCY IS DIFFERENCE BETWEEN IN-OUT MINUS CHANGE IN STORAGE
 DIVIDED BY THE AVERAGE OF IN AND OUT TIMES 100

 PERCENT DISCREPANCY =           0.00     PERCENT DISCREPANCY =           0.00






1
  VOLUMETRIC BUDGET FOR ENTIRE MODEL AT END OF TIME STEP   10, STRESS PERIOD  11
  ------------------------------------------------------------------------------

     CUMULATIVE VOLUMES      L**3       RATES FOR THIS TIME STEP      L**3/T
     ------------------                 ------------------------

           IN:                                      IN:
           ---                                      ---
             STORAGE =   474580736.0000               STORAGE =          22.9686
       CONSTANT HEAD =           0.0000         CONSTANT HEAD =           0.0000
               WELLS =           0.0000                 WELLS =           0.0000
     HEAD DEP BOUNDS =     8312405.0000       HEAD DEP BOUNDS =           0.3025
      STREAM LEAKAGE =   422672288.0000        STREAM LEAKAGE =          15.1971
        UZF RECHARGE =     7880964.5000          UZF RECHARGE =           0.0000
               GW ET =           0.0000                 GW ET =           0.0000
     SURFACE LEAKAGE =           0.0000       SURFACE LEAKAGE =           0.0000

            TOTAL IN =   913446400.0000              TOTAL IN =          38.4682

          OUT:                                     OUT:
          ----                                     ----
             STORAGE =   141501136.0000               STORAGE =       9.8248E-02
       CONSTANT HEAD =           0.0000         CONSTANT HEAD =           0.0000
               WELLS =   538867008.0000                 WELLS =          30.0000
     HEAD DEP BOUNDS =     7793720.5000       HEAD DEP BOUNDS =           0.2728
      STREAM LEAKAGE =    68458616.0000        STREAM LEAKAGE =           2.0767
        UZF RECHARGE =           0.0000          UZF RECHARGE =           0.0000
               GW ET =   156839888.0000                 GW ET =           6.0217
     SURFACE LEAKAGE =           0.0000       SURFACE LEAKAGE =           0.0000

           TOTAL OUT =   913460352.0000             TOTAL OUT =          38.4694

            IN - OUT =      -13952.0000              IN - OUT =      -1.1559E-03

 PERCENT DISCREPANCY =          -0.00     PERCENT DISCREPANCY =          -0.00






         TIME SUMMARY AT END OF TIME STEP   10 IN STRESS PERIOD   11
                    SECONDS     MINUTES      HOURS       DAYS        YEARS
                    -----------------------------------------------------------
   TIME STEP LENGTH 1.95033E+05  3250.6      54.176      2.2573     6.18023E-03
 STRESS PERIOD TIME 1.31823E+06  21971.      366.18      15.257     4.17723E-02
         TOTAL TIME 2.75982E+07 4.59970E+05  7666.2      319.42     0.87454    
1
 
 SOLVING FOR HEAD 
                                                   Max.-Head-Change                         Max.-Flux-Residual
  Residual-Control   Outer-Iter.   Inner-Iter.     Column Row Layer    Maximum-Head-Change  Column Row Layer    Maximum-Flux-Residual          L2-NORM 
          0                 1           2             4    9     1      -0.8545793495E-01       4    9    1        -0.1843660531E+01      0.5448739981E+01
          0                 2           2             4    9     1       0.8467975323E-02       4    9    1         0.1843624605E+00      0.5448507495E+00
          0                 3           2             4    9     1      -0.7551971753E-03       4    9    1        -0.1659265878E-01      0.4903516259E-01
          0                 4           1             4    9     1       0.5994239189E-04       4    9    1         0.1329072027E-02      0.3927622164E-02

    ------------------------------------------------
       NWT REQUIRED            4 OUTER ITERATIONS 
       AND A TOTAL OF          7 INNER ITERATIONS.
    ------------------------------------------------

 NO OUTPUT CONTROL FOR STRESS PERIOD   11   TIME STEP   11
 
 SOLVING FOR HEAD 
                                                   Max.-Head-Change                         Max.-Flux-Residual
  Residual-Control   Outer-Iter.   Inner-Iter.     Column Row Layer    Maximum-Head-Change  Column Row Layer    Maximum-Flux-Residual          L2-NORM 
          0                 1           2             4    9     1      -0.9225451250E-01       4    9    1        -0.1813900980E+01      0.5300512227E+01
          0                 2           2             4    9     1       0.9141404448E-02       4    9    1         0.1813855419E+00      0.5300298268E+00
          0                 3           2             4    9     1      -0.8152558177E-03       4    9    1        -0.1632474553E-01      0.4770159731E-01
          0                 4           1             4    9     1       0.6470943267E-04       4    9    1         0.1307612085E-02      0.3820821183E-02

    ------------------------------------------------
       NWT REQUIRED            4 OUTER ITERATIONS 
       AND A TOTAL OF          7 INNER ITERATIONS.
    ------------------------------------------------

 NO OUTPUT CONTROL FOR STRESS PERIOD   11   TIME STEP   12
 
 SOLVING FOR HEAD 
                                                   Max.-Head-Change                         Max.-Flux-Residual
  Residual-Control   Outer-Iter.   Inner-Iter.     Column Row Layer    Maximum-Head-Change  Column Row Layer    Maximum-Flux-Residual          L2-NORM 
          0                 1           2             4    9     1      -0.9932213422E-01       4    9    1        -0.1780147737E+01      0.5153215315E+01
          0                 2           2             4    9     1       0.9841673433E-02       4    9    1         0.1780091136E+00      0.5152973587E+00
          0                 3           2             4    9     1      -0.8777082498E-03       4    9    1        -0.1602087779E-01      0.4637599146E-01
          0                 4           1             4    9     1       0.6966647604E-04       4    9    1         0.1283272196E-02      0.3714673860E-02

    ------------------------------------------------
       NWT REQUIRED            4 OUTER ITERATIONS 
       AND A TOTAL OF          7 INNER ITERATIONS.
    ------------------------------------------------

 NO OUTPUT CONTROL FOR STRESS PERIOD   11   TIME STEP   13
 
 SOLVING FOR HEAD 
                                                   Max.-Head-Change                         Max.-Flux-Residual
  Residual-Control   Outer-Iter.   Inner-Iter.     Column Row Layer    Maximum-Head-Change  Column Row Layer    Maximum-Flux-Residual          L2-NORM 
          0                 1           2             4    8     1      -0.1070513848E+00       4    9    1        -0.1742295257E+01      0.5007292773E+01
          0                 2           2             4    8     1       0.1060760827E-01       4    9    1         0.1742226250E+00      0.5007104349E+00
          0                 3           2             4    8     1      -0.9460159736E-03       4    9    1        -0.1568010594E-01      0.4506347988E-01
          0                 4           1             4    8     1       0.7508827786E-04       4    9    1         0.1255976263E-02      0.3609571255E-02

    ------------------------------------------------
       NWT REQUIRED            4 OUTER ITERATIONS 
       AND A TOTAL OF          7 INNER ITERATIONS.
    ------------------------------------------------

 NO OUTPUT CONTROL FOR STRESS PERIOD   11   TIME STEP   14
 
 SOLVING FOR HEAD 
                                                   Max.-Head-Change                         Max.-Flux-Residual
  Residual-Control   Outer-Iter.   Inner-Iter.     Column Row Layer    Maximum-Head-Change  Column Row Layer    Maximum-Flux-Residual          L2-NORM 
          0                 1           2             4    8     1      -0.1153467936E+00       4    8    1        -0.1707160292E+01      0.4863189510E+01
          0                 2           2             4    8     1       0.1142951627E-01       4    8    1         0.1707105360E+00      0.4863011080E+00
          0                 3           2             4    8     1      -0.1019316760E-02       4    8    1        -0.1536400408E-01      0.4376697915E-01
          0                 4           1             4    8     1       0.8090638522E-04       4    8    1         0.1230656613E-02      0.3505778022E-02

    ------------------------------------------------
       NWT REQUIRED            4 OUTER ITERATIONS 
       AND A TOTAL OF          7 INNER ITERATIONS.
    ------------------------------------------------

 OUTPUT CONTROL FOR STRESS PERIOD   11   TIME STEP   15
    PRINT BUDGET
    PRINT HEAD FOR ALL LAYERS
    SAVE HEAD FOR ALL LAYERS
    SAVE BUDGET

            WELLS   PERIOD   11   STEP  15
 WELL      1   LAYER   1   ROW     6   COL     4   RATE    -3.00000    
 WELL      2   LAYER   1   ROW     6   COL     5   RATE    -3.00000    
 WELL      3   LAYER   1   ROW     7   COL     4   RATE    -3.00000    
 WELL      4   LAYER   1   ROW     7   COL     5   RATE    -3.00000    
 WELL      5   LAYER   1   ROW     8   COL     4   RATE    -3.00000    
 WELL      6   LAYER   1   ROW     8   COL     5   RATE    -3.00000    
 WELL      7   LAYER   1   ROW     9   COL     4   RATE    -3.00000    
 WELL      8   LAYER   1   ROW     9   COL     5   RATE    -3.00000    
 WELL      9   LAYER   1   ROW    10   COL     4   RATE    -3.00000    
 WELL     10   LAYER   1   ROW    10   COL     5   RATE    -3.00000    

  HEAD DEP BOUNDS   PERIOD   11   STEP    15
 BOUNDARY      1   LAYER   1   ROW    13   COL     1   RATE   -0.272187    
 BOUNDARY      2   LAYER   1   ROW    14   COL     9   RATE    0.302601    



 STREAM LISTING     PERIOD     11   STEP       15

 LAYER ROW COL. STREAM  RCH.  FLOW INTO     FLOW TO   FLOW OUT OF   OVRLND.     DIRECT     STREAM       STREAM     STREAM     STREAM   STREAMBED  STREAMBED
                SEG.NO.  NO.  STRM. RCH.    AQUIFER    STRM. RCH.    RUNOFF     PRECIP       ET          HEAD       DEPTH      WIDTH   CONDCTNC.   GRADIENT

   1    1    1     1     1    2.5000E+01  2.4523E-01   2.4789E+01  3.416E-02  0.000E+00  0.000E+00  1.09423E+03  1.179E+00  1.304E+01  5.869E-02  1.393E+00
   1    2    2     1     2    2.4789E+01  3.7953E-01   2.4463E+01  5.315E-02  0.000E+00  0.000E+00  1.08923E+03  1.175E+00  1.299E+01  9.091E-02  1.392E+00
   1    3    3     1     3    2.4463E+01  3.2343E-01   2.4185E+01  4.555E-02  0.000E+00  0.000E+00  1.08359E+03  1.170E+00  1.293E+01  7.756E-02  1.390E+00
   1    3    4     1     4    2.4185E+01  2.9763E-01   2.3929E+01  4.214E-02  0.000E+00  0.000E+00  1.07857E+03  1.166E+00  1.287E+01  7.144E-02  1.389E+00
   1    4    5     2     1    1.3929E+01  0.0000E+00   1.3929E+01  0.000E+00  0.000E+00  0.000E+00  1.07278E+03  8.502E-01  1.200E+01  0.000E+00  1.283E+00
   1    5    6     2     2    1.3929E+01  0.0000E+00   1.3929E+01  0.000E+00  0.000E+00  0.000E+00  1.06736E+03  8.502E-01  1.200E+01  0.000E+00  1.283E+00
   1    6    6     2     3    1.3929E+01  0.0000E+00   1.3929E+01  0.000E+00  0.000E+00  0.000E+00  1.06264E+03  8.502E-01  1.200E+01  0.000E+00  1.283E+00
   1    7    6     2     4    1.3929E+01  0.0000E+00   1.3929E+01  0.000E+00  0.000E+00  0.000E+00  1.05793E+03  8.502E-01  1.200E+01  0.000E+00  1.283E+00
   1    8    6     2     5    1.3929E+01  0.0000E+00   1.3929E+01  0.000E+00  0.000E+00  0.000E+00  1.05321E+03  8.502E-01  1.200E+01  0.000E+00  1.283E+00
   1    3    5     3     1    1.0000E+01  2.8252E-01   9.9038E+00  1.864E-01  0.000E+00  0.000E+00  1.07555E+03  1.909E+00  9.636E+00  7.227E-02  1.955E+00
   1    3    6     3     2    9.9038E+00  2.4905E-01   9.8412E+00  1.864E-01  0.000E+00  0.000E+00  1.07264E+03  1.727E+00  8.909E+00  6.682E-02  1.864E+00
   1    3    7     3     3    9.8412E+00  1.9718E-01   9.8117E+00  1.677E-01  0.000E+00  0.000E+00  1.06987E+03  1.555E+00  8.218E+00  5.547E-02  1.777E+00
   1    4    8     3     4    9.8117E+00  2.2567E-01   9.8097E+00  2.236E-01  0.000E+00  0.000E+00  1.06682E+03  1.364E+00  7.455E+00  6.709E-02  1.682E+00
   1    5    8     3     5    9.8097E+00  1.5790E-01   9.8381E+00  1.864E-01  0.000E+00  0.000E+00  1.06362E+03  1.164E+00  6.655E+00  4.991E-02  1.582E+00
   1    6    8     3     6    9.8381E+00  5.5980E-02   9.8567E+00  7.455E-02  0.000E+00  0.000E+00  1.06158E+03  1.036E+00  6.145E+00  1.844E-02  1.518E+00
   1    5   10     4     1    1.0000E+01  0.0000E+00   1.0023E+01  2.273E-02  0.000E+00  0.000E+00  1.07837E+03  6.389E-01  1.000E+01  0.000E+00  1.213E+00
   1    5    9     4     2    1.0023E+01  0.0000E+00   1.0068E+01  4.545E-02  0.000E+00  0.000E+00  1.07155E+03  6.403E-01  1.000E+01  0.000E+00  1.213E+00
   1    6    8     4     3    1.0068E+01  0.0000E+00   1.0100E+01  3.182E-02  0.000E+00  0.000E+00  1.06382E+03  6.417E-01  1.000E+01  0.000E+00  1.214E+00
   1    6    8     5     1    1.9957E+01  3.5132E-01   1.9652E+01  4.667E-02  0.000E+00  0.000E+00  1.05885E+03  8.531E-01  2.280E+01  9.118E-02  1.284E+00
   1    7    7     5     2    1.9652E+01  4.3403E-01   1.9276E+01  5.833E-02  0.000E+00  0.000E+00  1.05435E+03  8.479E-01  2.256E+01  1.128E-01  1.283E+00
   1    8    7     5     3    1.9276E+01  3.0046E-01   1.9017E+01  4.083E-02  0.000E+00  0.000E+00  1.05009E+03  8.430E-01  2.234E+01  7.818E-02  1.281E+00
   1    8    6     5     4    1.9017E+01  2.1293E-01   1.8833E+01  2.917E-02  0.000E+00  0.000E+00  1.04709E+03  8.396E-01  2.218E+01  5.546E-02  1.280E+00
   1    9    6     6     1    3.2762E+01  0.0000E+00   3.2864E+01  1.023E-01  0.000E+00  0.000E+00  1.04416E+03  1.437E+00  1.200E+01  0.000E+00  1.479E+00
   1   10    7     6     2    3.2864E+01  0.0000E+00   3.2967E+01  1.023E-01  0.000E+00  0.000E+00  1.03962E+03  1.440E+00  1.200E+01  0.000E+00  1.480E+00
   1   11    7     6     3    3.2967E+01  0.0000E+00   3.3069E+01  1.023E-01  0.000E+00  0.000E+00  1.03508E+03  1.443E+00  1.200E+01  0.000E+00  1.481E+00
   1   12    7     6     4    3.3069E+01  0.0000E+00   3.3171E+01  1.023E-01  0.000E+00  0.000E+00  1.03054E+03  1.446E+00  1.200E+01  0.000E+00  1.482E+00
   1   13    7     6     5    3.3171E+01  0.0000E+00   3.3212E+01  4.091E-02  0.000E+00  0.000E+00  1.02736E+03  1.447E+00  1.200E+01  0.000E+00  8.817E-01
   1   14    9     7     1    1.5000E+02  1.5834E+00   1.4851E+02  8.871E-02  0.000E+00  0.000E+00  1.03987E+03  2.287E+00  5.529E+01  5.593E-01  9.437E-01
   1   13    8     7     2    1.4851E+02  2.6016E+00   1.4600E+02  9.758E-02  0.000E+00  0.000E+00  1.03478E+03  2.277E+00  5.524E+01  6.146E-01  1.411E+00
   1   13    7     7     3    1.4600E+02  2.7740E+00   1.4332E+02  8.871E-02  0.000E+00  0.000E+00  1.02968E+03  2.263E+00  5.518E+01  5.581E-01  1.657E+00
   1   13    6     8     1    1.7653E+02  2.2502E+00   1.7488E+02  6.027E-01  0.000E+00  0.000E+00  1.02486E+03  2.989E+00  4.334E+01  4.417E-01  1.698E+00
   1   13    5     8     2    1.7488E+02  1.6359E+00   1.7385E+02  6.027E-01  0.000E+00  0.000E+00  1.01861E+03  2.980E+00  4.322E+01  4.404E-01  1.238E+00
   1   13    4     8     3    1.7385E+02  6.7626E-01   1.7377E+02  6.027E-01  0.000E+00  0.000E+00  1.01235E+03  2.977E+00  4.316E+01  4.399E-01  5.125E-01
   1   13    3     8     4    1.7377E+02 -2.8072E-01   1.7466E+02  6.027E-01  0.000E+00  0.000E+00  1.00610E+03  2.979E+00  4.320E+01  4.402E+00 -2.125E-02
   1   13    2     8     5    1.7466E+02 -8.8643E-01   1.7615E+02  6.027E-01  0.000E+00  0.000E+00  9.99862E+02  2.987E+00  4.331E+01  4.414E+00 -6.695E-02
   1   13    1     8     6    1.7615E+02 -7.7650E-01   1.7728E+02  3.616E-01  0.000E+00  0.000E+00  9.94870E+02  2.995E+00  4.343E+01  2.656E+00 -9.747E-02



 UBDSV3 SAVING "     NETRECHARGE" ON UNIT 100 AT TIME STEP    15, STRESS PERIOD  11
 UBDSV3 SAVING "    NETDISCHARGE" ON UNIT 101 AT TIME STEP    15, STRESS PERIOD  11
 UBDSV3 SAVING "           GW ET" ON UNIT  61 AT TIME STEP    15, STRESS PERIOD  11
 UBDSV3 SAVING "    UZF RECHARGE" ON UNIT  61 AT TIME STEP    15, STRESS PERIOD  11
 UBDSV3 SAVING " SURFACE LEAKAGE" ON UNIT  61 AT TIME STEP    15, STRESS PERIOD  11
 UBDSV3 SAVING "       HORT+DUNN" ON UNIT  61 AT TIME STEP    15, STRESS PERIOD  11
 UBDSV3 SAVING "  STORAGE CHANGE" ON UNIT  61 AT TIME STEP    15, STRESS PERIOD  11


UNSATURATED ZONE PACKAGE VOLUMETRIC BUDGET FOR  TIME STEP    15 STRESS PERIOD   11
  ------------------------------------------------------------------------------



     CUMULATIVE VOLUMES      L**3       RATES FOR THIS TIME STEP      L**3/T
     ------------------                 ------------------------

           IN:                                      IN:
           ---                                      ---
        INFILTRATION =    83833191.7871          INFILTRATION =           2.9000

          OUT:                                     OUT:
          ----                                     ----
              UZF ET =    26301494.1833                UZF ET =           1.1749
        UZF RECHARGE =     7880960.6654          UZF RECHARGE =       0.0000E+00

            IN - OUT =    49650736.9385              IN - OUT =           1.7251

          STORAGE:                                 STORAGE:
          --------                                 --------
      STORAGE CHANGE =    49650735.5783        STORAGE CHANGE =           1.7251

 PERCENT DISCREPANCY IS DIFFERENCE BETWEEN IN-OUT MINUS CHANGE IN STORAGE
 DIVIDED BY THE AVERAGE OF IN AND OUT TIMES 100

 PERCENT DISCREPANCY =           0.00     PERCENT DISCREPANCY =           0.00






1
              HEAD IN LAYER   1 AT END OF TIME STEP    15 IN STRESS PERIOD   11
  -----------------------------------------------------------------------------

           1       2       3       4       5       6       7       8       9      10
 ...................................................................................
   1  1029.17 1025.61 6999.00 6999.00 6999.00 6999.00 6999.00 6999.00 6999.00 6999.00
   2  1025.92 1021.03 1018.97 6999.00 6999.00 1017.40 1017.68 1017.83 6999.00 6999.00
   3  6999.00 1017.93 1016.57 1015.49 1015.36 1015.92 1016.74 1017.03 6999.00 6999.00
   4  1015.94 1015.88 1014.82 1013.83 1013.49 1013.65 1014.61 1016.21 1016.01 6999.00
   5  1015.12 1014.13 1012.93 1012.22 1012.32 1012.88 1013.56 1014.41 1014.97 1015.38
   6  1014.31 1012.91 1011.34 1010.05 1010.45 1012.10 1013.18 1014.13 1014.89 1015.69
   7  1013.76 1011.99 1010.30 1009.05 1009.66 1011.62 1012.98 1013.75 1015.15 6999.00
   8  6999.00 1011.32 1009.77 1008.68 1009.41 1011.49 1012.78 1014.09 1016.10 6999.00
   9  6999.00 1010.86 1009.74 1008.88 1009.69 1011.75 1013.06 1014.94 1017.67 6999.00
  10  6999.00 1010.37 1010.00 1009.62 1010.56 1012.71 1014.09 1016.36 1019.36 1020.30
  11  6999.00 1009.14 1009.94 1011.17 1012.51 1014.43 1016.24 1019.21 1022.61 6999.00
  12  1000.68 1005.38 1008.70 1011.20 1013.72 1016.66 1019.39 1024.33 1028.32 6999.00
  13   995.16 1000.06 1006.17 1010.81 1014.89 1019.77 1024.71 1030.54 1033.63 6999.00
  14  6999.00 1005.45 1008.11 1011.94 1015.95 1020.39 1025.71 1032.03 1037.04 6999.00
  15  6999.00 6999.00 1011.63 1013.97 1016.98 1019.73 6999.00 6999.00 6999.00 6999.00

 HEAD WILL BE SAVED ON UNIT   58 AT END OF TIME STEP   15, STRESS PERIOD   11
1
  VOLUMETRIC BUDGET FOR ENTIRE MODEL AT END OF TIME STEP   15, STRESS PERIOD  11
  ------------------------------------------------------------------------------

     CUMULATIVE VOLUMES      L**3       RATES FOR THIS TIME STEP      L**3/T
     ------------------                 ------------------------

           IN:                                      IN:
           ---                                      ---
             STORAGE =   504378592.0000               STORAGE =          22.6739
       CONSTANT HEAD =           0.0000         CONSTANT HEAD =           0.0000
               WELLS =           0.0000                 WELLS =           0.0000
     HEAD DEP BOUNDS =     8708680.0000       HEAD DEP BOUNDS =           0.3026
      STREAM LEAKAGE =   442606848.0000        STREAM LEAKAGE =          15.2343
        UZF RECHARGE =     7880964.5000          UZF RECHARGE =           0.0000
               GW ET =           0.0000                 GW ET =           0.0000
     SURFACE LEAKAGE =           0.0000       SURFACE LEAKAGE =           0.0000

            TOTAL IN =   963575040.0000              TOTAL IN =          38.2108

          OUT:                                     OUT:
          ----                                     ----
             STORAGE =   141511088.0000               STORAGE =           0.0000
       CONSTANT HEAD =           0.0000         CONSTANT HEAD =           0.0000
               WELLS =   578160000.0000                 WELLS =          30.0000
     HEAD DEP BOUNDS =     8150489.0000       HEAD DEP BOUNDS =           0.2722
      STREAM LEAKAGE =    71062752.0000        STREAM LEAKAGE =           1.9436
        UZF RECHARGE =           0.0000          UZF RECHARGE =           0.0000
               GW ET =   164706272.0000                 GW ET =           5.9961
     SURFACE LEAKAGE =           0.0000       SURFACE LEAKAGE =           0.0000

           TOTAL OUT =   963590656.0000             TOTAL OUT =          38.2120

            IN - OUT =      -15616.0000              IN - OUT =      -1.1482E-03

 PERCENT DISCREPANCY =          -0.00     PERCENT DISCREPANCY =          -0.00






         TIME SUMMARY AT END OF TIME STEP   15 IN STRESS PERIOD   11
                    SECONDS     MINUTES      HOURS       DAYS        YEARS
                    -----------------------------------------------------------
   TIME STEP LENGTH 3.14103E+05  5235.0      87.251      3.6354     9.95332E-03
 STRESS PERIOD TIME 2.62800E+06  43800.      730.00      30.417     8.32763E-02
         TOTAL TIME 2.89080E+07 4.81800E+05  8030.0      334.58     0.91604    
1
1
                            STRESS PERIOD NO.   12, LENGTH =   2628000.    
                            -----------------------------------------------

                              NUMBER OF TIME STEPS =    15

                               MULTIPLIER FOR DELT =     1.100

                            INITIAL TIME STEP SIZE =   82713.07    

      0 WELLS

 REUSING NON-PARAMETER GHB CELLS FROM LAST STRESS PERIOD

      2 GHB CELLS

 REUSING STREAM SEGMENT DATA FROM LAST STRESS PERIOD



            AREAL INFILTRATION RATE
 READING ON UNIT   19 WITH FORMAT: (10F4.0)            

            1           2           3           4           5           6           7           8           9          10
 ........................................................................................................................
   1   1.0000E-09  2.0000E-09   0.000       0.000       0.000       0.000       0.000       0.000       0.000       0.000    
   2   2.0000E-09  1.0000E-09  2.0000E-09   0.000       0.000      8.0000E-09  8.0000E-09  5.0000E-09   0.000       0.000    
   3    0.000      5.0000E-09  1.0000E-09  1.0000E-09  8.0000E-09  8.0000E-09  5.0000E-09  5.0000E-09   0.000       0.000    
   4   8.0000E-09  5.0000E-09  1.0000E-09  1.0000E-09  1.0000E-09  1.0000E-09  1.0000E-09  1.0000E-09  2.0000E-09   0.000    
   5   8.0000E-09  5.0000E-09  1.0000E-09  1.0000E-09  1.0000E-09  1.0000E-09  1.0000E-09  1.0000E-09  1.0000E-09  1.0000E-09
   6   8.0000E-09  5.0000E-09  5.0000E-09  2.0000E-09  2.0000E-09  1.0000E-09  1.0000E-09  1.0000E-09  1.0000E-09  5.0000E-09
   7   8.0000E-09  5.0000E-09  5.0000E-09  2.0000E-09  2.0000E-09  1.0000E-09  1.0000E-09  2.0000E-09  2.0000E-09   0.000    
   8    0.000      5.0000E-09  5.0000E-09  2.0000E-09  2.0000E-09  1.0000E-09  1.0000E-09  2.0000E-09  5.0000E-09   0.000    
   9    0.000      5.0000E-09  5.0000E-09  2.0000E-09  2.0000E-09  1.0000E-09  1.0000E-09  2.0000E-09  5.0000E-09   0.000    
  10    0.000      5.0000E-09  5.0000E-09  2.0000E-09  2.0000E-09  1.0000E-09  1.0000E-09  2.0000E-09  5.0000E-09  8.0000E-09
  11    0.000      1.0000E-09  1.0000E-09  1.0000E-09  1.0000E-09  1.0000E-09  1.0000E-09  2.0000E-09  5.0000E-09   0.000    
  12   1.0000E-09  1.0000E-09  1.0000E-09  1.0000E-09  1.0000E-09  1.0000E-09  1.0000E-09  1.0000E-09  2.0000E-09   0.000    
  13   1.0000E-09  1.0000E-09  2.0000E-09  2.0000E-09  2.0000E-09  2.0000E-09  2.0000E-09  1.0000E-09  1.0000E-09   0.000    
  14    0.000      2.0000E-09  5.0000E-09  5.0000E-09  5.0000E-09  5.0000E-09  5.0000E-09  2.0000E-09  1.0000E-09   0.000    
  15    0.000       0.000      8.0000E-09  8.0000E-09  8.0000E-09  8.0000E-09   0.000       0.000       0.000       0.000    

USING ET RATE FROM PREVIOUS STRESS PERIOD. CURRENT PERIOD IS:      12

 USING ET EXTINCTION DEPTH FROM PREVIOUS STRESS PERIOD. CURRENT PERIOD IS:      12

 USING EXTINCTION WATER CONTENT FROM PREVIOUS STRESS PERIOD. CURRENT PERIOD IS:      12
 
 SOLVING FOR HEAD 
                                                   Max.-Head-Change                         Max.-Flux-Residual
  Residual-Control   Outer-Iter.   Inner-Iter.     Column Row Layer    Maximum-Head-Change  Column Row Layer    Maximum-Flux-Residual          L2-NORM 
          0                 1           2             5   10     1       0.3191590265E-01       5   10    1         0.1822497407E+01      0.5108282646E+01
          0                 2           2             5   10     1      -0.3162575388E-02       5   10    1        -0.1822497012E+00      0.5108261492E+00
          0                 3           2             5   10     1       0.2820466381E-03       5   10    1         0.1640247552E-01      0.4597423047E-01
          0                 4           1             5   10     1      -0.2238693840E-04       5   10    1        -0.1313838609E-02      0.3682503459E-02

    ------------------------------------------------
       NWT REQUIRED            4 OUTER ITERATIONS 
       AND A TOTAL OF          7 INNER ITERATIONS.
    ------------------------------------------------

 NO OUTPUT CONTROL FOR STRESS PERIOD   12   TIME STEP    1
 
 SOLVING FOR HEAD 
                                                   Max.-Head-Change                         Max.-Flux-Residual
  Residual-Control   Outer-Iter.   Inner-Iter.     Column Row Layer    Maximum-Head-Change  Column Row Layer    Maximum-Flux-Residual          L2-NORM 
          0                 1           2             5   10     1       0.3378227928E-01       5   10    1         0.1758163110E+01      0.5000867612E+01
          0                 2           2             5   10     1      -0.3347515885E-02       5   10    1        -0.1758162430E+00      0.5000847213E+00
          0                 3           2             5   10     1       0.2985401136E-03       5   10    1         0.1582346451E-01      0.4500753786E-01
          0                 4           1             5   10     1      -0.2369607853E-04       5   10    1        -0.1267459839E-02      0.3605099995E-02

    ------------------------------------------------
       NWT REQUIRED            4 OUTER ITERATIONS 
       AND A TOTAL OF          7 INNER ITERATIONS.
    ------------------------------------------------

 NO OUTPUT CONTROL FOR STRESS PERIOD   12   TIME STEP    2
 
 SOLVING FOR HEAD 
                                                   Max.-Head-Change                         Max.-Flux-Residual
  Residual-Control   Outer-Iter.   Inner-Iter.     Column Row Layer    Maximum-Head-Change  Column Row Layer    Maximum-Flux-Residual          L2-NORM 
          0                 1           2             5   10     1       0.3566463648E-01       5   10    1         0.1691790959E+01      0.4889656740E+01
          0                 2           2             5   10     1      -0.3534039801E-02       5   10    1        -0.1691789978E+00      0.4889637144E+00
          0                 3           2             5   10     1       0.3151748028E-03       5   10    1         0.1522611267E-01      0.4400666728E-01
          0                 4           1             5   10     1      -0.2501642614E-04       5   10    1        -0.1219611924E-02      0.3524951074E-02

    ------------------------------------------------
       NWT REQUIRED            4 OUTER ITERATIONS 
       AND A TOTAL OF          7 INNER ITERATIONS.
    ------------------------------------------------

 NO OUTPUT CONTROL FOR STRESS PERIOD   12   TIME STEP    3
 
 SOLVING FOR HEAD 
                                                   Max.-Head-Change                         Max.-Flux-Residual
  Residual-Control   Outer-Iter.   Inner-Iter.     Column Row Layer    Maximum-Head-Change  Column Row Layer    Maximum-Flux-Residual          L2-NORM 
          0                 1           2             5   10     1       0.3755234400E-01       5   10    1         0.1623689521E+01      0.4775028895E+01
          0                 2           2             5   10     1      -0.3721093766E-02       5   10    1        -0.1623688226E+00      0.4775010974E+00
          0                 3           2             5   10     1       0.3318567638E-03       5   10    1         0.1461319712E-01      0.4297503870E-01
          0                 4           1             5   10     1      -0.2634052670E-04       5   10    1        -0.1170517387E-02      0.3442326673E-02

    ------------------------------------------------
       NWT REQUIRED            4 OUTER ITERATIONS 
       AND A TOTAL OF          7 INNER ITERATIONS.
    ------------------------------------------------

 NO OUTPUT CONTROL FOR STRESS PERIOD   12   TIME STEP    4
 
 SOLVING FOR HEAD 
                                                   Max.-Head-Change                         Max.-Flux-Residual
  Residual-Control   Outer-Iter.   Inner-Iter.     Column Row Layer    Maximum-Head-Change  Column Row Layer    Maximum-Flux-Residual          L2-NORM 
          0                 1           2             5    6     1       0.3943499680E-01       5   10    1         0.1554209465E+01      0.4657424333E+01
          0                 2           2             5    6     1      -0.3907646257E-02       5   10    1        -0.1554207852E+00      0.4657409064E+00
          0                 3           2             5    6     1       0.3484940119E-03       5   10    1         0.1398787399E-01      0.4191665801E-01
          0                 4           1             5    6     1      -0.2766107800E-04       5   10    1        -0.1120428977E-02      0.3357528620E-02

    ------------------------------------------------
       NWT REQUIRED            4 OUTER ITERATIONS 
       AND A TOTAL OF          7 INNER ITERATIONS.
    ------------------------------------------------

 OUTPUT CONTROL FOR STRESS PERIOD   12   TIME STEP    5
    PRINT BUDGET
    SAVE BUDGET

  HEAD DEP BOUNDS   PERIOD   12   STEP     5
 BOUNDARY      1   LAYER   1   ROW    13   COL     1   RATE   -0.272038    
 BOUNDARY      2   LAYER   1   ROW    14   COL     9   RATE    0.302648    



 STREAM LISTING     PERIOD     12   STEP        5

 LAYER ROW COL. STREAM  RCH.  FLOW INTO     FLOW TO   FLOW OUT OF   OVRLND.     DIRECT     STREAM       STREAM     STREAM     STREAM   STREAMBED  STREAMBED
                SEG.NO.  NO.  STRM. RCH.    AQUIFER    STRM. RCH.    RUNOFF     PRECIP       ET          HEAD       DEPTH      WIDTH   CONDCTNC.   GRADIENT

   1    1    1     1     1    2.5000E+01  2.4523E-01   2.4789E+01  3.416E-02  0.000E+00  0.000E+00  1.09423E+03  1.179E+00  1.304E+01  5.869E-02  1.393E+00
   1    2    2     1     2    2.4789E+01  3.7953E-01   2.4463E+01  5.315E-02  0.000E+00  0.000E+00  1.08923E+03  1.175E+00  1.299E+01  9.091E-02  1.392E+00
   1    3    3     1     3    2.4463E+01  3.2343E-01   2.4185E+01  4.555E-02  0.000E+00  0.000E+00  1.08359E+03  1.170E+00  1.293E+01  7.756E-02  1.390E+00
   1    3    4     1     4    2.4185E+01  2.9763E-01   2.3929E+01  4.214E-02  0.000E+00  0.000E+00  1.07857E+03  1.166E+00  1.287E+01  7.144E-02  1.389E+00
   1    4    5     2     1    1.3929E+01  0.0000E+00   1.3929E+01  0.000E+00  0.000E+00  0.000E+00  1.07278E+03  8.502E-01  1.200E+01  0.000E+00  1.283E+00
   1    5    6     2     2    1.3929E+01  0.0000E+00   1.3929E+01  0.000E+00  0.000E+00  0.000E+00  1.06736E+03  8.502E-01  1.200E+01  0.000E+00  1.283E+00
   1    6    6     2     3    1.3929E+01  0.0000E+00   1.3929E+01  0.000E+00  0.000E+00  0.000E+00  1.06264E+03  8.502E-01  1.200E+01  0.000E+00  1.283E+00
   1    7    6     2     4    1.3929E+01  0.0000E+00   1.3929E+01  0.000E+00  0.000E+00  0.000E+00  1.05793E+03  8.502E-01  1.200E+01  0.000E+00  1.283E+00
   1    8    6     2     5    1.3929E+01  0.0000E+00   1.3929E+01  0.000E+00  0.000E+00  0.000E+00  1.05321E+03  8.502E-01  1.200E+01  0.000E+00  1.283E+00
   1    3    5     3     1    1.0000E+01  2.8252E-01   9.9038E+00  1.864E-01  0.000E+00  0.000E+00  1.07555E+03  1.909E+00  9.636E+00  7.227E-02  1.955E+00
   1    3    6     3     2    9.9038E+00  2.4905E-01   9.8412E+00  1.864E-01  0.000E+00  0.000E+00  1.07264E+03  1.727E+00  8.909E+00  6.682E-02  1.864E+00
   1    3    7     3     3    9.8412E+00  1.9718E-01   9.8117E+00  1.677E-01  0.000E+00  0.000E+00  1.06987E+03  1.555E+00  8.218E+00  5.547E-02  1.777E+00
   1    4    8     3     4    9.8117E+00  2.2567E-01   9.8097E+00  2.236E-01  0.000E+00  0.000E+00  1.06682E+03  1.364E+00  7.455E+00  6.709E-02  1.682E+00
   1    5    8     3     5    9.8097E+00  1.5790E-01   9.8381E+00  1.864E-01  0.000E+00  0.000E+00  1.06362E+03  1.164E+00  6.655E+00  4.991E-02  1.582E+00
   1    6    8     3     6    9.8381E+00  5.5980E-02   9.8567E+00  7.455E-02  0.000E+00  0.000E+00  1.06158E+03  1.036E+00  6.145E+00  1.844E-02  1.518E+00
   1    5   10     4     1    1.0000E+01  0.0000E+00   1.0023E+01  2.273E-02  0.000E+00  0.000E+00  1.07837E+03  6.389E-01  1.000E+01  0.000E+00  1.213E+00
   1    5    9     4     2    1.0023E+01  0.0000E+00   1.0068E+01  4.545E-02  0.000E+00  0.000E+00  1.07155E+03  6.403E-01  1.000E+01  0.000E+00  1.213E+00
   1    6    8     4     3    1.0068E+01  0.0000E+00   1.0100E+01  3.182E-02  0.000E+00  0.000E+00  1.06382E+03  6.417E-01  1.000E+01  0.000E+00  1.214E+00
   1    6    8     5     1    1.9957E+01  3.5132E-01   1.9652E+01  4.667E-02  0.000E+00  0.000E+00  1.05885E+03  8.531E-01  2.280E+01  9.118E-02  1.284E+00
   1    7    7     5     2    1.9652E+01  4.3403E-01   1.9276E+01  5.833E-02  0.000E+00  0.000E+00  1.05435E+03  8.479E-01  2.256E+01  1.128E-01  1.283E+00
   1    8    7     5     3    1.9276E+01  3.0046E-01   1.9017E+01  4.083E-02  0.000E+00  0.000E+00  1.05009E+03  8.430E-01  2.234E+01  7.818E-02  1.281E+00
   1    8    6     5     4    1.9017E+01  2.1293E-01   1.8833E+01  2.917E-02  0.000E+00  0.000E+00  1.04709E+03  8.396E-01  2.218E+01  5.546E-02  1.280E+00
   1    9    6     6     1    3.2762E+01  0.0000E+00   3.2864E+01  1.023E-01  0.000E+00  0.000E+00  1.04416E+03  1.437E+00  1.200E+01  0.000E+00  1.479E+00
   1   10    7     6     2    3.2864E+01  0.0000E+00   3.2967E+01  1.023E-01  0.000E+00  0.000E+00  1.03962E+03  1.440E+00  1.200E+01  0.000E+00  1.480E+00
   1   11    7     6     3    3.2967E+01  0.0000E+00   3.3069E+01  1.023E-01  0.000E+00  0.000E+00  1.03508E+03  1.443E+00  1.200E+01  0.000E+00  1.481E+00
   1   12    7     6     4    3.3069E+01  0.0000E+00   3.3171E+01  1.023E-01  0.000E+00  0.000E+00  1.03054E+03  1.446E+00  1.200E+01  0.000E+00  1.482E+00
   1   13    7     6     5    3.3171E+01  0.0000E+00   3.3212E+01  4.091E-02  0.000E+00  0.000E+00  1.02736E+03  1.447E+00  1.200E+01  0.000E+00  8.837E-01
   1   14    9     7     1    1.5000E+02  1.5841E+00   1.4850E+02  8.871E-02  0.000E+00  0.000E+00  1.03987E+03  2.287E+00  5.529E+01  5.593E-01  9.441E-01
   1   13    8     7     2    1.4850E+02  2.6038E+00   1.4600E+02  9.758E-02  0.000E+00  0.000E+00  1.03478E+03  2.277E+00  5.524E+01  6.146E-01  1.412E+00
   1   13    7     7     3    1.4600E+02  2.7773E+00   1.4331E+02  8.871E-02  0.000E+00  0.000E+00  1.02968E+03  2.263E+00  5.518E+01  5.581E-01  1.659E+00
   1   13    6     8     1    1.7652E+02  2.2531E+00   1.7487E+02  6.027E-01  0.000E+00  0.000E+00  1.02486E+03  2.989E+00  4.334E+01  4.416E-01  1.701E+00
   1   13    5     8     2    1.7487E+02  1.6374E+00   1.7384E+02  6.027E-01  0.000E+00  0.000E+00  1.01861E+03  2.980E+00  4.321E+01  4.404E-01  1.239E+00
   1   13    4     8     3    1.7384E+02  6.7871E-01   1.7376E+02  6.027E-01  0.000E+00  0.000E+00  1.01235E+03  2.977E+00  4.316E+01  4.398E-01  5.144E-01
   1   13    3     8     4    1.7376E+02 -2.6960E-01   1.7463E+02  6.027E-01  0.000E+00  0.000E+00  1.00610E+03  2.979E+00  4.320E+01  4.402E+00 -2.041E-02
   1   13    2     8     5    1.7463E+02 -8.7630E-01   1.7611E+02  6.027E-01  0.000E+00  0.000E+00  9.99862E+02  2.987E+00  4.331E+01  4.413E+00 -6.619E-02
   1   13    1     8     6    1.7611E+02 -7.6670E-01   1.7724E+02  3.616E-01  0.000E+00  0.000E+00  9.94870E+02  2.995E+00  4.343E+01  2.655E+00 -9.624E-02



 UBDSV3 SAVING "     NETRECHARGE" ON UNIT 100 AT TIME STEP     5, STRESS PERIOD  12
 UBDSV3 SAVING "    NETDISCHARGE" ON UNIT 101 AT TIME STEP     5, STRESS PERIOD  12
 UBDSV3 SAVING "           GW ET" ON UNIT  61 AT TIME STEP     5, STRESS PERIOD  12
 UBDSV3 SAVING "    UZF RECHARGE" ON UNIT  61 AT TIME STEP     5, STRESS PERIOD  12
 UBDSV3 SAVING " SURFACE LEAKAGE" ON UNIT  61 AT TIME STEP     5, STRESS PERIOD  12
 UBDSV3 SAVING "       HORT+DUNN" ON UNIT  61 AT TIME STEP     5, STRESS PERIOD  12
 UBDSV3 SAVING "  STORAGE CHANGE" ON UNIT  61 AT TIME STEP     5, STRESS PERIOD  12


UNSATURATED ZONE PACKAGE VOLUMETRIC BUDGET FOR  TIME STEP     5 STRESS PERIOD   12
  ------------------------------------------------------------------------------



     CUMULATIVE VOLUMES      L**3       RATES FOR THIS TIME STEP      L**3/T
     ------------------                 ------------------------

           IN:                                      IN:
           ---                                      ---
        INFILTRATION =    85297609.3467          INFILTRATION =           2.9000

          OUT:                                     OUT:
          ----                                     ----
              UZF ET =    26893225.6142                UZF ET =           1.1723
        UZF RECHARGE =     7880960.6654          UZF RECHARGE =       0.0000E+00

            IN - OUT =    50523423.0671              IN - OUT =           1.7277

          STORAGE:                                 STORAGE:
          --------                                 --------
      STORAGE CHANGE =    50523421.6889        STORAGE CHANGE =           1.7277

 PERCENT DISCREPANCY IS DIFFERENCE BETWEEN IN-OUT MINUS CHANGE IN STORAGE
 DIVIDED BY THE AVERAGE OF IN AND OUT TIMES 100

 PERCENT DISCREPANCY =           0.00     PERCENT DISCREPANCY =           0.00






1
  VOLUMETRIC BUDGET FOR ENTIRE MODEL AT END OF TIME STEP    5, STRESS PERIOD  12
  ------------------------------------------------------------------------------

     CUMULATIVE VOLUMES      L**3       RATES FOR THIS TIME STEP      L**3/T
     ------------------                 ------------------------

           IN:                                      IN:
           ---                                      ---
             STORAGE =   508085728.0000               STORAGE =           6.7436
       CONSTANT HEAD =           0.0000         CONSTANT HEAD =           0.0000
               WELLS =           0.0000                 WELLS =           0.0000
     HEAD DEP BOUNDS =     8861500.0000       HEAD DEP BOUNDS =           0.3026
      STREAM LEAKAGE =   450303712.0000        STREAM LEAKAGE =          15.2473
        UZF RECHARGE =     7880964.5000          UZF RECHARGE =           0.0000
               GW ET =           0.0000                 GW ET =           0.0000
     SURFACE LEAKAGE =           0.0000       SURFACE LEAKAGE =           0.0000

            TOTAL IN =   975131904.0000              TOTAL IN =          22.2936

          OUT:                                     OUT:
          ----                                     ----
             STORAGE =   148933232.0000               STORAGE =          14.1209
       CONSTANT HEAD =           0.0000         CONSTANT HEAD =           0.0000
               WELLS =   578160000.0000                 WELLS =           0.0000
     HEAD DEP BOUNDS =     8287888.5000       HEAD DEP BOUNDS =           0.2720
      STREAM LEAKAGE =    72034456.0000        STREAM LEAKAGE =           1.9126
        UZF RECHARGE =           0.0000          UZF RECHARGE =           0.0000
               GW ET =   167731616.0000                 GW ET =           5.9877
     SURFACE LEAKAGE =           0.0000       SURFACE LEAKAGE =           0.0000

           TOTAL OUT =   975147136.0000             TOTAL OUT =          22.2932

            IN - OUT =      -15232.0000              IN - OUT =       3.7766E-04

 PERCENT DISCREPANCY =          -0.00     PERCENT DISCREPANCY =           0.00






         TIME SUMMARY AT END OF TIME STEP    5 IN STRESS PERIOD   12
                    SECONDS     MINUTES      HOURS       DAYS        YEARS
                    -----------------------------------------------------------
   TIME STEP LENGTH 1.21100E+05  2018.3      33.639      1.4016     3.83743E-03
 STRESS PERIOD TIME 5.04972E+05  8416.2      140.27      5.8446     1.60016E-02
         TOTAL TIME 2.94130E+07 4.90216E+05  8170.3      340.43     0.93204    
1
 
 SOLVING FOR HEAD 
                                                   Max.-Head-Change                         Max.-Flux-Residual
  Residual-Control   Outer-Iter.   Inner-Iter.     Column Row Layer    Maximum-Head-Change  Column Row Layer    Maximum-Flux-Residual          L2-NORM 
          0                 1           2             5    6     1       0.4138131010E-01       5   10    1         0.1483754467E+01      0.4537315755E+01
          0                 2           2             5    6     1      -0.4100507345E-02       5   10    1        -0.1483752538E+00      0.4537304007E+00
          0                 3           2             5    6     1       0.3656938701E-03       5   10    1         0.1335377640E-01      0.4083571068E-01
          0                 4           1             5    6     1      -0.2902628509E-04       5   10    1        -0.1069637760E-02      0.3270943041E-02

    ------------------------------------------------
       NWT REQUIRED            4 OUTER ITERATIONS 
       AND A TOTAL OF          7 INNER ITERATIONS.
    ------------------------------------------------

 NO OUTPUT CONTROL FOR STRESS PERIOD   12   TIME STEP    6
 
 SOLVING FOR HEAD 
                                                   Max.-Head-Change                         Max.-Flux-Residual
  Residual-Control   Outer-Iter.   Inner-Iter.     Column Row Layer    Maximum-Head-Change  Column Row Layer    Maximum-Flux-Residual          L2-NORM 
          0                 1           2             4   10     1       0.4381358783E-01       5    6    1         0.1415298611E+01      0.4415236500E+01
          0                 2           2             4   10     1      -0.4341529587E-02       5    6    1        -0.1415296240E+00      0.4415229374E+00
          0                 3           2             4   10     1       0.3871887990E-03       5    6    1         0.1273767006E-01      0.3973708170E-01
          0                 4           1             4   10     1      -0.3073240632E-04       5    6    1        -0.1020287616E-02      0.3182966170E-02

    ------------------------------------------------
       NWT REQUIRED            4 OUTER ITERATIONS 
       AND A TOTAL OF          7 INNER ITERATIONS.
    ------------------------------------------------

 NO OUTPUT CONTROL FOR STRESS PERIOD   12   TIME STEP    7
 
 SOLVING FOR HEAD 
                                                   Max.-Head-Change                         Max.-Flux-Residual
  Residual-Control   Outer-Iter.   Inner-Iter.     Column Row Layer    Maximum-Head-Change  Column Row Layer    Maximum-Flux-Residual          L2-NORM 
          0                 1           2             4    7     1       0.4675687599E-01       4   10    1         0.1361712696E+01      0.4291710483E+01
          0                 2           2             4    7     1      -0.4633193577E-02       4   10    1        -0.1361713930E+00      0.4291709254E+00
          0                 3           2             4    7     1       0.4132000395E-03       4   10    1         0.1225542568E-01      0.3862545433E-01
          0                 4           1             4    7     1      -0.3279700275E-04       4   10    1        -0.9816598558E-03      0.3093918507E-02

    ------------------------------------------------
       NWT REQUIRED            4 OUTER ITERATIONS 
       AND A TOTAL OF          7 INNER ITERATIONS.
    ------------------------------------------------

 NO OUTPUT CONTROL FOR STRESS PERIOD   12   TIME STEP    8
 
 SOLVING FOR HEAD 
                                                   Max.-Head-Change                         Max.-Flux-Residual
  Residual-Control   Outer-Iter.   Inner-Iter.     Column Row Layer    Maximum-Head-Change  Column Row Layer    Maximum-Flux-Residual          L2-NORM 
          0                 1           2             4    7     1       0.5088465039E-01       4    7    1         0.1321273938E+01      0.4167289759E+01
          0                 2           2             4    7     1      -0.5042228238E-02       4    7    1        -0.1321281326E+00      0.4167295792E+00
          0                 3           2             4    7     1       0.4496787089E-03       4    7    1         0.1189152616E-01      0.3750578358E-01
          0                 4           1             4    7     1      -0.3569243083E-04       4    7    1        -0.9525115356E-03      0.3004288925E-02

    ------------------------------------------------
       NWT REQUIRED            4 OUTER ITERATIONS 
       AND A TOTAL OF          7 INNER ITERATIONS.
    ------------------------------------------------

 NO OUTPUT CONTROL FOR STRESS PERIOD   12   TIME STEP    9
 
 SOLVING FOR HEAD 
                                                   Max.-Head-Change                         Max.-Flux-Residual
  Residual-Control   Outer-Iter.   Inner-Iter.     Column Row Layer    Maximum-Head-Change  Column Row Layer    Maximum-Flux-Residual          L2-NORM 
          0                 1           2             4    9     1       0.5531639495E-01       4    7    1         0.1307193466E+01      0.4042474122E+01
          0                 2           2             4    9     1      -0.5482040207E-02       4    7    1        -0.1307204409E+00      0.4045284571E+00
          0                 3           2             4    9     1       0.4889021308E-03       4    7    1         0.1176483039E-01      0.3640773924E-01
          0                 4           1             4    9     1      -0.3880572049E-04       4    7    1        -0.9423632389E-03      0.2916294348E-02

    ------------------------------------------------
       NWT REQUIRED            4 OUTER ITERATIONS 
       AND A TOTAL OF          7 INNER ITERATIONS.
    ------------------------------------------------

 OUTPUT CONTROL FOR STRESS PERIOD   12   TIME STEP   10
    PRINT BUDGET
    SAVE BUDGET

  HEAD DEP BOUNDS   PERIOD   12   STEP    10
 BOUNDARY      1   LAYER   1   ROW    13   COL     1   RATE   -0.271867    
 BOUNDARY      2   LAYER   1   ROW    14   COL     9   RATE    0.302722    



 STREAM LISTING     PERIOD     12   STEP       10

 LAYER ROW COL. STREAM  RCH.  FLOW INTO     FLOW TO   FLOW OUT OF   OVRLND.     DIRECT     STREAM       STREAM     STREAM     STREAM   STREAMBED  STREAMBED
                SEG.NO.  NO.  STRM. RCH.    AQUIFER    STRM. RCH.    RUNOFF     PRECIP       ET          HEAD       DEPTH      WIDTH   CONDCTNC.   GRADIENT

   1    1    1     1     1    2.5000E+01  2.4523E-01   2.4789E+01  3.416E-02  0.000E+00  0.000E+00  1.09423E+03  1.179E+00  1.304E+01  5.869E-02  1.393E+00
   1    2    2     1     2    2.4789E+01  3.7953E-01   2.4463E+01  5.315E-02  0.000E+00  0.000E+00  1.08923E+03  1.175E+00  1.299E+01  9.091E-02  1.392E+00
   1    3    3     1     3    2.4463E+01  3.2343E-01   2.4185E+01  4.555E-02  0.000E+00  0.000E+00  1.08359E+03  1.170E+00  1.293E+01  7.756E-02  1.390E+00
   1    3    4     1     4    2.4185E+01  2.9763E-01   2.3929E+01  4.214E-02  0.000E+00  0.000E+00  1.07857E+03  1.166E+00  1.287E+01  7.144E-02  1.389E+00
   1    4    5     2     1    1.3929E+01  0.0000E+00   1.3929E+01  0.000E+00  0.000E+00  0.000E+00  1.07278E+03  8.502E-01  1.200E+01  0.000E+00  1.283E+00
   1    5    6     2     2    1.3929E+01  0.0000E+00   1.3929E+01  0.000E+00  0.000E+00  0.000E+00  1.06736E+03  8.502E-01  1.200E+01  0.000E+00  1.283E+00
   1    6    6     2     3    1.3929E+01  0.0000E+00   1.3929E+01  0.000E+00  0.000E+00  0.000E+00  1.06264E+03  8.502E-01  1.200E+01  0.000E+00  1.283E+00
   1    7    6     2     4    1.3929E+01  0.0000E+00   1.3929E+01  0.000E+00  0.000E+00  0.000E+00  1.05793E+03  8.502E-01  1.200E+01  0.000E+00  1.283E+00
   1    8    6     2     5    1.3929E+01  0.0000E+00   1.3929E+01  0.000E+00  0.000E+00  0.000E+00  1.05321E+03  8.502E-01  1.200E+01  0.000E+00  1.283E+00
   1    3    5     3     1    1.0000E+01  2.8252E-01   9.9038E+00  1.864E-01  0.000E+00  0.000E+00  1.07555E+03  1.909E+00  9.636E+00  7.227E-02  1.955E+00
   1    3    6     3     2    9.9038E+00  2.4905E-01   9.8412E+00  1.864E-01  0.000E+00  0.000E+00  1.07264E+03  1.727E+00  8.909E+00  6.682E-02  1.864E+00
   1    3    7     3     3    9.8412E+00  1.9718E-01   9.8117E+00  1.677E-01  0.000E+00  0.000E+00  1.06987E+03  1.555E+00  8.218E+00  5.547E-02  1.777E+00
   1    4    8     3     4    9.8117E+00  2.2567E-01   9.8097E+00  2.236E-01  0.000E+00  0.000E+00  1.06682E+03  1.364E+00  7.455E+00  6.709E-02  1.682E+00
   1    5    8     3     5    9.8097E+00  1.5790E-01   9.8381E+00  1.864E-01  0.000E+00  0.000E+00  1.06362E+03  1.164E+00  6.655E+00  4.991E-02  1.582E+00
   1    6    8     3     6    9.8381E+00  5.5980E-02   9.8567E+00  7.455E-02  0.000E+00  0.000E+00  1.06158E+03  1.036E+00  6.145E+00  1.844E-02  1.518E+00
   1    5   10     4     1    1.0000E+01  0.0000E+00   1.0023E+01  2.273E-02  0.000E+00  0.000E+00  1.07837E+03  6.389E-01  1.000E+01  0.000E+00  1.213E+00
   1    5    9     4     2    1.0023E+01  0.0000E+00   1.0068E+01  4.545E-02  0.000E+00  0.000E+00  1.07155E+03  6.403E-01  1.000E+01  0.000E+00  1.213E+00
   1    6    8     4     3    1.0068E+01  0.0000E+00   1.0100E+01  3.182E-02  0.000E+00  0.000E+00  1.06382E+03  6.417E-01  1.000E+01  0.000E+00  1.214E+00
   1    6    8     5     1    1.9957E+01  3.5132E-01   1.9652E+01  4.667E-02  0.000E+00  0.000E+00  1.05885E+03  8.531E-01  2.280E+01  9.118E-02  1.284E+00
   1    7    7     5     2    1.9652E+01  4.3403E-01   1.9276E+01  5.833E-02  0.000E+00  0.000E+00  1.05435E+03  8.479E-01  2.256E+01  1.128E-01  1.283E+00
   1    8    7     5     3    1.9276E+01  3.0046E-01   1.9017E+01  4.083E-02  0.000E+00  0.000E+00  1.05009E+03  8.430E-01  2.234E+01  7.818E-02  1.281E+00
   1    8    6     5     4    1.9017E+01  2.1293E-01   1.8833E+01  2.917E-02  0.000E+00  0.000E+00  1.04709E+03  8.396E-01  2.218E+01  5.546E-02  1.280E+00
   1    9    6     6     1    3.2762E+01  0.0000E+00   3.2864E+01  1.023E-01  0.000E+00  0.000E+00  1.04416E+03  1.437E+00  1.200E+01  0.000E+00  1.479E+00
   1   10    7     6     2    3.2864E+01  0.0000E+00   3.2967E+01  1.023E-01  0.000E+00  0.000E+00  1.03962E+03  1.440E+00  1.200E+01  0.000E+00  1.480E+00
   1   11    7     6     3    3.2967E+01  0.0000E+00   3.3069E+01  1.023E-01  0.000E+00  0.000E+00  1.03508E+03  1.443E+00  1.200E+01  0.000E+00  1.481E+00
   1   12    7     6     4    3.3069E+01  0.0000E+00   3.3171E+01  1.023E-01  0.000E+00  0.000E+00  1.03054E+03  1.446E+00  1.200E+01  0.000E+00  1.482E+00
   1   13    7     6     5    3.3171E+01  0.0000E+00   3.3212E+01  4.091E-02  0.000E+00  0.000E+00  1.02736E+03  1.447E+00  1.200E+01  0.000E+00  8.867E-01
   1   14    9     7     1    1.5000E+02  1.5852E+00   1.4850E+02  8.871E-02  0.000E+00  0.000E+00  1.03987E+03  2.287E+00  5.529E+01  5.593E-01  9.448E-01
   1   13    8     7     2    1.4850E+02  2.6073E+00   1.4599E+02  9.758E-02  0.000E+00  0.000E+00  1.03478E+03  2.277E+00  5.524E+01  6.146E-01  1.414E+00
   1   13    7     7     3    1.4599E+02  2.7823E+00   1.4330E+02  8.871E-02  0.000E+00  0.000E+00  1.02968E+03  2.263E+00  5.518E+01  5.581E-01  1.662E+00
   1   13    6     8     1    1.7651E+02  2.2574E+00   1.7486E+02  6.027E-01  0.000E+00  0.000E+00  1.02486E+03  2.989E+00  4.334E+01  4.416E-01  1.704E+00
   1   13    5     8     2    1.7486E+02  1.6395E+00   1.7382E+02  6.027E-01  0.000E+00  0.000E+00  1.01861E+03  2.980E+00  4.321E+01  4.404E-01  1.241E+00
   1   13    4     8     3    1.7382E+02  6.8237E-01   1.7374E+02  6.027E-01  0.000E+00  0.000E+00  1.01235E+03  2.977E+00  4.316E+01  4.398E-01  5.171E-01
   1   13    3     8     4    1.7374E+02 -2.5578E-01   1.7460E+02  6.027E-01  0.000E+00  0.000E+00  1.00610E+03  2.979E+00  4.320E+01  4.402E+00 -1.937E-02
   1   13    2     8     5    1.7460E+02 -8.6559E-01   1.7607E+02  6.027E-01  0.000E+00  0.000E+00  9.99862E+02  2.987E+00  4.331E+01  4.413E+00 -6.538E-02
   1   13    1     8     6    1.7607E+02 -7.5550E-01   1.7718E+02  3.616E-01  0.000E+00  0.000E+00  9.94870E+02  2.995E+00  4.343E+01  2.655E+00 -9.485E-02



 UBDSV3 SAVING "     NETRECHARGE" ON UNIT 100 AT TIME STEP    10, STRESS PERIOD  12
 UBDSV3 SAVING "    NETDISCHARGE" ON UNIT 101 AT TIME STEP    10, STRESS PERIOD  12
 UBDSV3 SAVING "           GW ET" ON UNIT  61 AT TIME STEP    10, STRESS PERIOD  12
 UBDSV3 SAVING "    UZF RECHARGE" ON UNIT  61 AT TIME STEP    10, STRESS PERIOD  12
 UBDSV3 SAVING " SURFACE LEAKAGE" ON UNIT  61 AT TIME STEP    10, STRESS PERIOD  12
 UBDSV3 SAVING "       HORT+DUNN" ON UNIT  61 AT TIME STEP    10, STRESS PERIOD  12
 UBDSV3 SAVING "  STORAGE CHANGE" ON UNIT  61 AT TIME STEP    10, STRESS PERIOD  12


UNSATURATED ZONE PACKAGE VOLUMETRIC BUDGET FOR  TIME STEP    10 STRESS PERIOD   12
  ------------------------------------------------------------------------------



     CUMULATIVE VOLUMES      L**3       RATES FOR THIS TIME STEP      L**3/T
     ------------------                 ------------------------

           IN:                                      IN:
           ---                                      ---
        INFILTRATION =    87656068.6143          INFILTRATION =           2.9000

          OUT:                                     OUT:
          ----                                     ----
              UZF ET =    27844829.9406                UZF ET =           1.1603
        UZF RECHARGE =     7880960.6654          UZF RECHARGE =       0.0000E+00

            IN - OUT =    51930278.0083              IN - OUT =           1.7397

          STORAGE:                                 STORAGE:
          --------                                 --------
      STORAGE CHANGE =    51930276.6089        STORAGE CHANGE =           1.7397

 PERCENT DISCREPANCY IS DIFFERENCE BETWEEN IN-OUT MINUS CHANGE IN STORAGE
 DIVIDED BY THE AVERAGE OF IN AND OUT TIMES 100

 PERCENT DISCREPANCY =           0.00     PERCENT DISCREPANCY =           0.00






1
  VOLUMETRIC BUDGET FOR ENTIRE MODEL AT END OF TIME STEP   10, STRESS PERIOD  12
  ------------------------------------------------------------------------------

     CUMULATIVE VOLUMES      L**3       RATES FOR THIS TIME STEP      L**3/T
     ------------------                 ------------------------

           IN:                                      IN:
           ---                                      ---
             STORAGE =   512601184.0000               STORAGE =           4.8891
       CONSTANT HEAD =           0.0000         CONSTANT HEAD =           0.0000
               WELLS =           0.0000                 WELLS =           0.0000
     HEAD DEP BOUNDS =     9107668.0000       HEAD DEP BOUNDS =           0.3027
      STREAM LEAKAGE =   462713472.0000        STREAM LEAKAGE =          15.2669
        UZF RECHARGE =     7880964.5000          UZF RECHARGE =           0.0000
               GW ET =           0.0000                 GW ET =           0.0000
     SURFACE LEAKAGE =           0.0000       SURFACE LEAKAGE =           0.0000

            TOTAL IN =   992303296.0000              TOTAL IN =          20.4588

          OUT:                                     OUT:
          ----                                     ----
             STORAGE =   159482848.0000               STORAGE =          12.3343
       CONSTANT HEAD =           0.0000         CONSTANT HEAD =           0.0000
               WELLS =   578160000.0000                 WELLS =           0.0000
     HEAD DEP BOUNDS =     8509039.0000       HEAD DEP BOUNDS =           0.2719
      STREAM LEAKAGE =    73571624.0000        STREAM LEAKAGE =           1.8769
        UZF RECHARGE =           0.0000          UZF RECHARGE =           0.0000
               GW ET =   172594752.0000                 GW ET =           5.9754
     SURFACE LEAKAGE =           0.0000       SURFACE LEAKAGE =           0.0000

           TOTAL OUT =   992318336.0000             TOTAL OUT =          20.4584

            IN - OUT =      -15040.0000              IN - OUT =       3.8147E-04

 PERCENT DISCREPANCY =          -0.00     PERCENT DISCREPANCY =           0.00






         TIME SUMMARY AT END OF TIME STEP   10 IN STRESS PERIOD   12
                    SECONDS     MINUTES      HOURS       DAYS        YEARS
                    -----------------------------------------------------------
   TIME STEP LENGTH 1.95033E+05  3250.6      54.176      2.2573     6.18023E-03
 STRESS PERIOD TIME 1.31823E+06  21971.      366.18      15.257     4.17723E-02
         TOTAL TIME 3.02262E+07 5.03770E+05  8396.2      349.84     0.95781    
1
 
 SOLVING FOR HEAD 
                                                   Max.-Head-Change                         Max.-Flux-Residual
  Residual-Control   Outer-Iter.   Inner-Iter.     Column Row Layer    Maximum-Head-Change  Column Row Layer    Maximum-Flux-Residual          L2-NORM 
          0                 1           2             4    9     1       0.5999289892E-01       4    9    1         0.1291521000E+01      0.3917563080E+01
          0                 2           2             4    9     1      -0.5944808188E-02       4    9    1        -0.1291536462E+00      0.3917593563E+00
          0                 3           2             4    9     1       0.5301727671E-03       4    9    1         0.1162381441E-01      0.3525859286E-01
          0                 4           1             4    9     1      -0.4208150346E-04       4    9    1        -0.9310678934E-03      0.2824264781E-02

    ------------------------------------------------
       NWT REQUIRED            4 OUTER ITERATIONS 
       AND A TOTAL OF          7 INNER ITERATIONS.
    ------------------------------------------------

 NO OUTPUT CONTROL FOR STRESS PERIOD   12   TIME STEP   11
 
 SOLVING FOR HEAD 
                                                   Max.-Head-Change                         Max.-Flux-Residual
  Residual-Control   Outer-Iter.   Inner-Iter.     Column Row Layer    Maximum-Head-Change  Column Row Layer    Maximum-Flux-Residual          L2-NORM 
          0                 1           2             4    9     1       0.6488127048E-01       4    9    1         0.1273384125E+01      0.3792677656E+01
          0                 2           2             4    9     1      -0.6429227991E-02       4    9    1        -0.1273404969E+00      0.3792719195E+00
          0                 3           2             4    9     1       0.5733743107E-03       4    9    1         0.1146062567E-01      0.3413477918E-01
          0                 4           1             4    9     1      -0.4551054893E-04       4    9    1        -0.9179965100E-03      0.2734237599E-02

    ------------------------------------------------
       NWT REQUIRED            4 OUTER ITERATIONS 
       AND A TOTAL OF          7 INNER ITERATIONS.
    ------------------------------------------------

 NO OUTPUT CONTROL FOR STRESS PERIOD   12   TIME STEP   12
 
 SOLVING FOR HEAD 
                                                   Max.-Head-Change                         Max.-Flux-Residual
  Residual-Control   Outer-Iter.   Inner-Iter.     Column Row Layer    Maximum-Head-Change  Column Row Layer    Maximum-Flux-Residual          L2-NORM 
          0                 1           2             4    8     1       0.7016378686E-01       4    9    1         0.1251950715E+01      0.3668720560E+01
          0                 2           2             4    8     1      -0.6952670799E-02       4    9    1        -0.1251977727E+00      0.3668773815E+00
          0                 3           2             4    8     1       0.6200563568E-03       4    9    1         0.1126777441E-01      0.3301937389E-01
          0                 4           1             4    8     1      -0.4921585055E-04       4    9    1        -0.9025491697E-03      0.2644929809E-02

    ------------------------------------------------
       NWT REQUIRED            4 OUTER ITERATIONS 
       AND A TOTAL OF          7 INNER ITERATIONS.
    ------------------------------------------------

 NO OUTPUT CONTROL FOR STRESS PERIOD   12   TIME STEP   13
 
 SOLVING FOR HEAD 
                                                   Max.-Head-Change                         Max.-Flux-Residual
  Residual-Control   Outer-Iter.   Inner-Iter.     Column Row Layer    Maximum-Head-Change  Column Row Layer    Maximum-Flux-Residual          L2-NORM 
          0                 1           2             4    8     1       0.7586663308E-01       4    8    1         0.1230799657E+01      0.3545948096E+01
          0                 2           2             4    8     1      -0.7517807716E-02       4    8    1        -0.1230822520E+00      0.3546013286E+00
          0                 3           2             4    8     1       0.6704563612E-03       4    8    1         0.1107738160E-01      0.3191460999E-01
          0                 4           1             4    8     1      -0.5321626174E-04       4    8    1        -0.8872986764E-03      0.2556454976E-02

    ------------------------------------------------
       NWT REQUIRED            4 OUTER ITERATIONS 
       AND A TOTAL OF          7 INNER ITERATIONS.
    ------------------------------------------------

 NO OUTPUT CONTROL FOR STRESS PERIOD   12   TIME STEP   14
 
 SOLVING FOR HEAD 
                                                   Max.-Head-Change                         Max.-Flux-Residual
  Residual-Control   Outer-Iter.   Inner-Iter.     Column Row Layer    Maximum-Head-Change  Column Row Layer    Maximum-Flux-Residual          L2-NORM 
          0                 1           2             4    8     1       0.8179739326E-01       4    8    1         0.1209852765E+01      0.3424552222E+01
          0                 2           2             4    8     1      -0.8105541749E-02       4    8    1        -0.1209882912E+00      0.3424629162E+00
          0                 3           2             4    8     1       0.7228715056E-03       4    8    1         0.1088891796E-01      0.3082220025E-01
          0                 4           1             4    8     1      -0.5737662046E-04       4    8    1        -0.8722027787E-03      0.2468969599E-02

    ------------------------------------------------
       NWT REQUIRED            4 OUTER ITERATIONS 
       AND A TOTAL OF          7 INNER ITERATIONS.
    ------------------------------------------------

 OUTPUT CONTROL FOR STRESS PERIOD   12   TIME STEP   15
    PRINT BUDGET
    PRINT HEAD FOR ALL LAYERS
    SAVE HEAD FOR ALL LAYERS
    SAVE BUDGET

  HEAD DEP BOUNDS   PERIOD   12   STEP    15
 BOUNDARY      1   LAYER   1   ROW    13   COL     1   RATE   -0.271700    
 BOUNDARY      2   LAYER   1   ROW    14   COL     9   RATE    0.302842    



 STREAM LISTING     PERIOD     12   STEP       15

 LAYER ROW COL. STREAM  RCH.  FLOW INTO     FLOW TO   FLOW OUT OF   OVRLND.     DIRECT     STREAM       STREAM     STREAM     STREAM   STREAMBED  STREAMBED
                SEG.NO.  NO.  STRM. RCH.    AQUIFER    STRM. RCH.    RUNOFF     PRECIP       ET          HEAD       DEPTH      WIDTH   CONDCTNC.   GRADIENT

   1    1    1     1     1    2.5000E+01  2.4523E-01   2.4789E+01  3.416E-02  0.000E+00  0.000E+00  1.09423E+03  1.179E+00  1.304E+01  5.869E-02  1.393E+00
   1    2    2     1     2    2.4789E+01  3.7953E-01   2.4463E+01  5.315E-02  0.000E+00  0.000E+00  1.08923E+03  1.175E+00  1.299E+01  9.091E-02  1.392E+00
   1    3    3     1     3    2.4463E+01  3.2343E-01   2.4185E+01  4.555E-02  0.000E+00  0.000E+00  1.08359E+03  1.170E+00  1.293E+01  7.756E-02  1.390E+00
   1    3    4     1     4    2.4185E+01  2.9763E-01   2.3929E+01  4.214E-02  0.000E+00  0.000E+00  1.07857E+03  1.166E+00  1.287E+01  7.144E-02  1.389E+00
   1    4    5     2     1    1.3929E+01  0.0000E+00   1.3929E+01  0.000E+00  0.000E+00  0.000E+00  1.07278E+03  8.502E-01  1.200E+01  0.000E+00  1.283E+00
   1    5    6     2     2    1.3929E+01  0.0000E+00   1.3929E+01  0.000E+00  0.000E+00  0.000E+00  1.06736E+03  8.502E-01  1.200E+01  0.000E+00  1.283E+00
   1    6    6     2     3    1.3929E+01  0.0000E+00   1.3929E+01  0.000E+00  0.000E+00  0.000E+00  1.06264E+03  8.502E-01  1.200E+01  0.000E+00  1.283E+00
   1    7    6     2     4    1.3929E+01  0.0000E+00   1.3929E+01  0.000E+00  0.000E+00  0.000E+00  1.05793E+03  8.502E-01  1.200E+01  0.000E+00  1.283E+00
   1    8    6     2     5    1.3929E+01  0.0000E+00   1.3929E+01  0.000E+00  0.000E+00  0.000E+00  1.05321E+03  8.502E-01  1.200E+01  0.000E+00  1.283E+00
   1    3    5     3     1    1.0000E+01  2.8252E-01   9.9038E+00  1.864E-01  0.000E+00  0.000E+00  1.07555E+03  1.909E+00  9.636E+00  7.227E-02  1.955E+00
   1    3    6     3     2    9.9038E+00  2.4905E-01   9.8412E+00  1.864E-01  0.000E+00  0.000E+00  1.07264E+03  1.727E+00  8.909E+00  6.682E-02  1.864E+00
   1    3    7     3     3    9.8412E+00  1.9718E-01   9.8117E+00  1.677E-01  0.000E+00  0.000E+00  1.06987E+03  1.555E+00  8.218E+00  5.547E-02  1.777E+00
   1    4    8     3     4    9.8117E+00  2.2567E-01   9.8097E+00  2.236E-01  0.000E+00  0.000E+00  1.06682E+03  1.364E+00  7.455E+00  6.709E-02  1.682E+00
   1    5    8     3     5    9.8097E+00  1.5790E-01   9.8381E+00  1.864E-01  0.000E+00  0.000E+00  1.06362E+03  1.164E+00  6.655E+00  4.991E-02  1.582E+00
   1    6    8     3     6    9.8381E+00  5.5980E-02   9.8567E+00  7.455E-02  0.000E+00  0.000E+00  1.06158E+03  1.036E+00  6.145E+00  1.844E-02  1.518E+00
   1    5   10     4     1    1.0000E+01  0.0000E+00   1.0023E+01  2.273E-02  0.000E+00  0.000E+00  1.07837E+03  6.389E-01  1.000E+01  0.000E+00  1.213E+00
   1    5    9     4     2    1.0023E+01  0.0000E+00   1.0068E+01  4.545E-02  0.000E+00  0.000E+00  1.07155E+03  6.403E-01  1.000E+01  0.000E+00  1.213E+00
   1    6    8     4     3    1.0068E+01  0.0000E+00   1.0100E+01  3.182E-02  0.000E+00  0.000E+00  1.06382E+03  6.417E-01  1.000E+01  0.000E+00  1.214E+00
   1    6    8     5     1    1.9957E+01  3.5132E-01   1.9652E+01  4.667E-02  0.000E+00  0.000E+00  1.05885E+03  8.531E-01  2.280E+01  9.118E-02  1.284E+00
   1    7    7     5     2    1.9652E+01  4.3403E-01   1.9276E+01  5.833E-02  0.000E+00  0.000E+00  1.05435E+03  8.479E-01  2.256E+01  1.128E-01  1.283E+00
   1    8    7     5     3    1.9276E+01  3.0046E-01   1.9017E+01  4.083E-02  0.000E+00  0.000E+00  1.05009E+03  8.430E-01  2.234E+01  7.818E-02  1.281E+00
   1    8    6     5     4    1.9017E+01  2.1293E-01   1.8833E+01  2.917E-02  0.000E+00  0.000E+00  1.04709E+03  8.396E-01  2.218E+01  5.546E-02  1.280E+00
   1    9    6     6     1    3.2762E+01  0.0000E+00   3.2864E+01  1.023E-01  0.000E+00  0.000E+00  1.04416E+03  1.437E+00  1.200E+01  0.000E+00  1.479E+00
   1   10    7     6     2    3.2864E+01  0.0000E+00   3.2967E+01  1.023E-01  0.000E+00  0.000E+00  1.03962E+03  1.440E+00  1.200E+01  0.000E+00  1.480E+00
   1   11    7     6     3    3.2967E+01  0.0000E+00   3.3069E+01  1.023E-01  0.000E+00  0.000E+00  1.03508E+03  1.443E+00  1.200E+01  0.000E+00  1.481E+00
   1   12    7     6     4    3.3069E+01  0.0000E+00   3.3171E+01  1.023E-01  0.000E+00  0.000E+00  1.03054E+03  1.446E+00  1.200E+01  0.000E+00  1.482E+00
   1   13    7     6     5    3.3171E+01  0.0000E+00   3.3212E+01  4.091E-02  0.000E+00  0.000E+00  1.02736E+03  1.447E+00  1.200E+01  0.000E+00  8.911E-01
   1   14    9     7     1    1.5000E+02  1.5869E+00   1.4850E+02  8.871E-02  0.000E+00  0.000E+00  1.03987E+03  2.287E+00  5.529E+01  5.593E-01  9.458E-01
   1   13    8     7     2    1.4850E+02  2.6126E+00   1.4599E+02  9.758E-02  0.000E+00  0.000E+00  1.03478E+03  2.277E+00  5.524E+01  6.146E-01  1.417E+00
   1   13    7     7     3    1.4599E+02  2.7896E+00   1.4329E+02  8.871E-02  0.000E+00  0.000E+00  1.02968E+03  2.263E+00  5.518E+01  5.581E-01  1.666E+00
   1   13    6     8     1    1.7650E+02  2.2635E+00   1.7484E+02  6.027E-01  0.000E+00  0.000E+00  1.02486E+03  2.989E+00  4.334E+01  4.416E-01  1.709E+00
   1   13    5     8     2    1.7484E+02  1.6424E+00   1.7380E+02  6.027E-01  0.000E+00  0.000E+00  1.01861E+03  2.980E+00  4.321E+01  4.403E-01  1.243E+00
   1   13    4     8     3    1.7380E+02  6.8745E-01   1.7371E+02  6.027E-01  0.000E+00  0.000E+00  1.01235E+03  2.976E+00  4.316E+01  4.398E-01  5.210E-01
   1   13    3     8     4    1.7371E+02 -2.3869E-01   1.7455E+02  6.027E-01  0.000E+00  0.000E+00  1.00610E+03  2.979E+00  4.319E+01  4.402E+00 -1.808E-02
   1   13    2     8     5    1.7455E+02 -8.5553E-01   1.7601E+02  6.027E-01  0.000E+00  0.000E+00  9.99861E+02  2.986E+00  4.330E+01  4.413E+00 -6.463E-02
   1   13    1     8     6    1.7601E+02 -7.4479E-01   1.7712E+02  3.616E-01  0.000E+00  0.000E+00  9.94869E+02  2.994E+00  4.342E+01  2.655E+00 -9.352E-02



 UBDSV3 SAVING "     NETRECHARGE" ON UNIT 100 AT TIME STEP    15, STRESS PERIOD  12
 UBDSV3 SAVING "    NETDISCHARGE" ON UNIT 101 AT TIME STEP    15, STRESS PERIOD  12
 UBDSV3 SAVING "           GW ET" ON UNIT  61 AT TIME STEP    15, STRESS PERIOD  12
 UBDSV3 SAVING "    UZF RECHARGE" ON UNIT  61 AT TIME STEP    15, STRESS PERIOD  12
 UBDSV3 SAVING " SURFACE LEAKAGE" ON UNIT  61 AT TIME STEP    15, STRESS PERIOD  12
 UBDSV3 SAVING "       HORT+DUNN" ON UNIT  61 AT TIME STEP    15, STRESS PERIOD  12
 UBDSV3 SAVING "  STORAGE CHANGE" ON UNIT  61 AT TIME STEP    15, STRESS PERIOD  12


UNSATURATED ZONE PACKAGE VOLUMETRIC BUDGET FOR  TIME STEP    15 STRESS PERIOD   12
  ------------------------------------------------------------------------------



     CUMULATIVE VOLUMES      L**3       RATES FOR THIS TIME STEP      L**3/T
     ------------------                 ------------------------

           IN:                                      IN:
           ---                                      ---
        INFILTRATION =    91454390.9658          INFILTRATION =           2.9000

          OUT:                                     OUT:
          ----                                     ----
              UZF ET =    29376251.3620                UZF ET =           1.1749
        UZF RECHARGE =     7880960.6654          UZF RECHARGE =       0.0000E+00

            IN - OUT =    54197178.9385              IN - OUT =           1.7251

          STORAGE:                                 STORAGE:
          --------                                 --------
      STORAGE CHANGE =    54197177.5854        STORAGE CHANGE =           1.7251

 PERCENT DISCREPANCY IS DIFFERENCE BETWEEN IN-OUT MINUS CHANGE IN STORAGE
 DIVIDED BY THE AVERAGE OF IN AND OUT TIMES 100

 PERCENT DISCREPANCY =           0.00     PERCENT DISCREPANCY =           0.00






1
              HEAD IN LAYER   1 AT END OF TIME STEP    15 IN STRESS PERIOD   12
  -----------------------------------------------------------------------------

           1       2       3       4       5       6       7       8       9      10
 ...................................................................................
   1  1029.16 1025.59 6999.00 6999.00 6999.00 6999.00 6999.00 6999.00 6999.00 6999.00
   2  1025.89 1021.00 1018.93 6999.00 6999.00 1017.36 1017.65 1017.80 6999.00 6999.00
   3  6999.00 1017.89 1016.51 1015.44 1015.31 1015.86 1016.69 1016.99 6999.00 6999.00
   4  1015.90 1015.83 1014.77 1013.79 1013.45 1013.61 1014.56 1016.15 1015.98 6999.00
   5  1015.09 1014.07 1012.90 1012.21 1012.32 1012.84 1013.52 1014.35 1014.92 1015.36
   6  1014.27 1012.85 1011.33 1010.69 1011.06 1012.09 1013.13 1014.07 1014.83 1015.66
   7  1013.72 1011.93 1010.31 1009.72 1010.30 1011.61 1012.93 1013.68 1015.10 6999.00
   8  6999.00 1011.25 1009.79 1009.34 1010.06 1011.48 1012.75 1014.02 1016.06 6999.00
   9  6999.00 1010.78 1009.74 1009.55 1010.34 1011.75 1013.03 1014.87 1017.63 6999.00
  10  6999.00 1010.29 1009.99 1010.26 1011.17 1012.71 1014.06 1016.30 1019.32 1020.27
  11  6999.00 1009.08 1009.91 1011.16 1012.50 1014.39 1016.21 1019.15 1022.58 6999.00
  12  1000.64 1005.33 1008.67 1011.16 1013.69 1016.62 1019.35 1024.29 1028.29 6999.00
  13   995.15 1000.06 1006.16 1010.79 1014.88 1019.74 1024.68 1030.53 1033.62 6999.00
  14  6999.00 1005.41 1008.08 1011.89 1015.89 1020.35 1025.68 1032.01 1037.03 6999.00
  15  6999.00 6999.00 1011.61 1013.94 1016.95 1019.70 6999.00 6999.00 6999.00 6999.00

 HEAD WILL BE SAVED ON UNIT   58 AT END OF TIME STEP   15, STRESS PERIOD   12
1
  VOLUMETRIC BUDGET FOR ENTIRE MODEL AT END OF TIME STEP   15, STRESS PERIOD  12
  ------------------------------------------------------------------------------

     CUMULATIVE VOLUMES      L**3       RATES FOR THIS TIME STEP      L**3/T
     ------------------                 ------------------------

           IN:                                      IN:
           ---                                      ---
             STORAGE =   518547584.0000               STORAGE =           4.3046
       CONSTANT HEAD =           0.0000         CONSTANT HEAD =           0.0000
               WELLS =           0.0000                 WELLS =           0.0000
     HEAD DEP BOUNDS =     9504257.0000       HEAD DEP BOUNDS =           0.3028
      STREAM LEAKAGE =   482732480.0000        STREAM LEAKAGE =          15.2954
        UZF RECHARGE =     7880964.5000          UZF RECHARGE =           0.0000
               GW ET =           0.0000                 GW ET =           0.0000
     SURFACE LEAKAGE =           0.0000       SURFACE LEAKAGE =           0.0000

            TOTAL IN =  1018665280.0000              TOTAL IN =          19.9028

          OUT:                                     OUT:
          ----                                     ----
             STORAGE =   175251536.0000               STORAGE =          11.8363
       CONSTANT HEAD =           0.0000         CONSTANT HEAD =           0.0000
               WELLS =   578160000.0000                 WELLS =           0.0000
     HEAD DEP BOUNDS =     8864980.0000       HEAD DEP BOUNDS =           0.2717
      STREAM LEAKAGE =    75998320.0000        STREAM LEAKAGE =           1.8390
        UZF RECHARGE =           0.0000          UZF RECHARGE =           0.0000
               GW ET =   180404928.0000                 GW ET =           5.9554
     SURFACE LEAKAGE =           0.0000       SURFACE LEAKAGE =           0.0000

           TOTAL OUT =  1018679744.0000             TOTAL OUT =          19.9024

            IN - OUT =      -14464.0000              IN - OUT =       3.8528E-04

 PERCENT DISCREPANCY =          -0.00     PERCENT DISCREPANCY =           0.00






         TIME SUMMARY AT END OF TIME STEP   15 IN STRESS PERIOD   12
                    SECONDS     MINUTES      HOURS       DAYS        YEARS
                    -----------------------------------------------------------
   TIME STEP LENGTH 3.14103E+05  5235.0      87.251      3.6354     9.95332E-03
 STRESS PERIOD TIME 2.62800E+06  43800.      730.00      30.417     8.32763E-02
         TOTAL TIME 3.15360E+07 5.25600E+05  8760.0      365.00     0.99932    
1

 Run end date and time (yyyy/mm/dd hh:mm:ss): 2017/08/10 12:28:23
 Elapsed run time:  0.725 Seconds

