                                  MODFLOW-NWT-SWR1 
      U.S. GEOLOGICAL SURVEY MODULAR FINITE-DIFFERENCE GROUNDWATER-FLOW MODEL
                            VERSION 1.2.0 03/01/2020
                    BASED ON MODFLOW-2005 VERSION 1.12.00 02/03/2017

 LIST FILE: .\UZF_testproblem2\UZFtest2.lst
                         UNIT    9

 OPENING .\UZF_testproblem2\UZFtest2.ba6
 FILE TYPE:BAS6   UNIT   75   STATUS:OLD    
 FORMAT:FORMATTED              ACCESS:SEQUENTIAL          

 OPENING .\UZF_testproblem2\UZFtest2.upw
 FILE TYPE:UPW   UNIT    7   STATUS:OLD    
 FORMAT:FORMATTED              ACCESS:SEQUENTIAL          

 OPENING .\UZF_testproblem2\UZFtest2.dis
 FILE TYPE:DIS   UNIT    8   STATUS:OLD    
 FORMAT:FORMATTED              ACCESS:SEQUENTIAL          

 OPENING .\UZF_testproblem2\UZFtest2.nwt
 FILE TYPE:NWT   UNIT   13   STATUS:OLD    
 FORMAT:FORMATTED              ACCESS:SEQUENTIAL          

 OPENING .\UZF_testproblem2\UZFtest2.oc
 FILE TYPE:OC   UNIT   14   STATUS:OLD    
 FORMAT:FORMATTED              ACCESS:SEQUENTIAL          

 OPENING .\UZF_testproblem2\UZFtest2.sfr
 FILE TYPE:SFR   UNIT   15   STATUS:OLD    
 FORMAT:FORMATTED              ACCESS:SEQUENTIAL          

 OPENING .\UZF_testproblem2\UZFtest2.wel
 FILE TYPE:WEL   UNIT   16   STATUS:OLD    
 FORMAT:FORMATTED              ACCESS:SEQUENTIAL          

 OPENING .\UZF_testproblem2\UZFtest2.ghb
 FILE TYPE:GHB   UNIT   17   STATUS:OLD    
 FORMAT:FORMATTED              ACCESS:SEQUENTIAL          

 OPENING .\UZF_testproblem2\UZFtest2.uzf
 FILE TYPE:UZF   UNIT   19   STATUS:OLD    
 FORMAT:FORMATTED              ACCESS:SEQUENTIAL          

 OPENING .\UZF_testproblem2\UZFtest2.gag
 FILE TYPE:GAGE   UNIT   32   STATUS:OLD    
 FORMAT:FORMATTED              ACCESS:SEQUENTIAL          

 OPENING .\UZF_testproblem2\UZFtest2hd.out
 FILE TYPE:DATA   UNIT   58   STATUS:UNKNOWN
 FORMAT:FORMATTED              ACCESS:SEQUENTIAL          

 OPENING .\UZF_testproblem2\UZFtest2.uzfot
 FILE TYPE:DATA(BINARY)   UNIT   61   STATUS:UNKNOWN
 FORMAT:BINARY                 ACCESS:SEQUENTIAL          

 OPENING .\UZF_testproblem2\UZFtest2.uzf1
 FILE TYPE:DATA   UNIT   65   STATUS:UNKNOWN
 FORMAT:FORMATTED              ACCESS:SEQUENTIAL          

 OPENING .\UZF_testproblem2\UZFtest2.uzf2
 FILE TYPE:DATA   UNIT   66   STATUS:UNKNOWN
 FORMAT:FORMATTED              ACCESS:SEQUENTIAL          

 OPENING .\UZF_testproblem2\UZFtest2.uzf3
 FILE TYPE:DATA   UNIT   67   STATUS:UNKNOWN
 FORMAT:FORMATTED              ACCESS:SEQUENTIAL          

 OPENING .\UZF_testproblem2\UZFtest2.uzf4
 FILE TYPE:DATA   UNIT   68   STATUS:UNKNOWN
 FORMAT:FORMATTED              ACCESS:SEQUENTIAL          

 OPENING .\UZF_testproblem2\UZFtest2.flw
 FILE TYPE:DATA   UNIT   81   STATUS:UNKNOWN
 FORMAT:FORMATTED              ACCESS:SEQUENTIAL          

 OPENING .\UZF_testproblem2\UZFtest2.sg1
 FILE TYPE:DATA   UNIT   83   STATUS:UNKNOWN
 FORMAT:FORMATTED              ACCESS:SEQUENTIAL          

 OPENING .\UZF_testproblem2\UZFtest2.sg2
 FILE TYPE:DATA   UNIT   84   STATUS:UNKNOWN
 FORMAT:FORMATTED              ACCESS:SEQUENTIAL          

 OPENING .\UZF_testproblem2\UZFtest2.sg3
 FILE TYPE:DATA   UNIT   85   STATUS:UNKNOWN
 FORMAT:FORMATTED              ACCESS:SEQUENTIAL          

 OPENING .\UZF_testproblem2\UZFtest2.sg4
 FILE TYPE:DATA   UNIT   86   STATUS:UNKNOWN
 FORMAT:FORMATTED              ACCESS:SEQUENTIAL          

 OPENING .\UZF_testproblem2\UZFtest2.sg5
 FILE TYPE:DATA   UNIT   87   STATUS:UNKNOWN
 FORMAT:FORMATTED              ACCESS:SEQUENTIAL          

 OPENING .\UZF_testproblem2\UZFtest2.sg6
 FILE TYPE:DATA   UNIT   88   STATUS:UNKNOWN
 FORMAT:FORMATTED              ACCESS:SEQUENTIAL          

 OPENING .\UZF_testproblem2\UZFtest2.sg7
 FILE TYPE:DATA   UNIT   89   STATUS:UNKNOWN
 FORMAT:FORMATTED              ACCESS:SEQUENTIAL          

 OPENING .\UZF_testproblem2\UZFtest2.sg8
 FILE TYPE:DATA   UNIT   90   STATUS:UNKNOWN
 FORMAT:FORMATTED              ACCESS:SEQUENTIAL          

 OPENING .\UZF_testproblem2\UZFtest2dv.sg9
 FILE TYPE:DATA   UNIT   91   STATUS:UNKNOWN
 FORMAT:FORMATTED              ACCESS:SEQUENTIAL          

 BAS -- BASIC PACKAGE, VERSION 1.2.0, 3/01/2020 INPUT READ FROM UNIT   75
 
 MODFLOW was compiled using mixed precision
 Precision of REAL variables:           6
 Precision of DOUBLE PRECISION variables:          15

 DISCRETIZATION INPUT DATA READ FROM UNIT    8
 #Test problem 2, 2 layer version -- Discretization input
 #Example problem using the UZF1 Package
    2 LAYERS        15 ROWS        10 COLUMNS
   12 STRESS PERIOD(S) IN SIMULATION
 MODEL TIME UNIT IS SECONDS
 MODEL LENGTH UNIT IS FEET
  Confining bed flag for each layer:
   0   0

                     DELR =   5000.00    

                     DELC =   5000.00    



           TOP ELEVATION OF LAYER 1
 READING ON UNIT    8 WITH FORMAT: (10F7.0)            

            1           2           3           4           5           6           7           8           9          10
 ........................................................................................................................
   1    1105.       1105.       0.000       0.000       0.000       0.000       0.000       0.000       0.000       0.000    
   2    1105.       1095.       1105.       0.000       0.000       1100.       1100.       1110.       0.000       0.000    
   3    0.000       1100.       1085.       1080.       1078.       1076.       1073.       1090.       0.000       0.000    
   4    1110.       1100.       1090.       1085.       1076.       1080.       1080.       1070.       1100.       0.000    
   5    1110.       1100.       1085.       1080.       1078.       1074.       1077.       1066.       1075.       1080.    
   6    1105.       1095.       1080.       1077.       1073.       1069.       1070.       1063.       1085.       1095.    
   7    1105.       1090.       1075.       1072.       1070.       1065.       1065.       1069.       1090.       0.000    
   8    0.000       1080.       1070.       1068.       1063.       1060.       1063.       1067.       1090.       0.000    
   9    0.000       1075.       1065.       1062.       1058.       1052.       1055.       1065.       1090.       0.000    
  10    0.000       1070.       1060.       1055.       1046.       1046.       1044.       1060.       1088.       1100.    
  11    0.000       1055.       1050.       1045.       1041.       1042.       1040.       1050.       1075.       0.000    
  12    1027.       1028.       1028.       1032.       1032.       1033.       1032.       1040.       1060.       0.000    
  13    997.0       1004.       1008.       1014.       1020.       1027.       1032.       1038.       1050.       0.000    
  14    0.000       1030.       1040.       1045.       1050.       1050.       1050.       1050.       1044.       0.000    
  15    0.000       0.000       1080.       1080.       1080.       1080.       0.000       0.000       0.000       0.000    



             MODEL LAYER BOTTOM EL. FOR LAYER   1
 READING ON UNIT    8 WITH FORMAT: (FREE)              

            1           2           3           4           5           6           7           8           9          10
 ........................................................................................................................
   1    1055.       1055.      -50.00      -50.00      -50.00      -50.00      -50.00      -50.00      -50.00      -50.00    
   2    1055.       1045.       1055.      -50.00      -50.00       1050.       1050.       1060.      -50.00      -50.00    
   3   -50.00       1050.       1035.       1030.       1028.       1026.       1023.       1040.      -50.00      -50.00    
   4    1060.       1050.       1040.       1035.       1026.       1030.       1030.       1020.       1050.      -50.00    
   5    1060.       1050.       1035.       1030.       1028.       1024.       1027.       1016.       1025.       1030.    
   6    1055.       1045.       1030.       1027.       1023.       1019.       1020.       1013.       1035.       1045.    
   7    1055.       1040.       1025.       1022.       1020.       1015.       1015.       1019.       1040.      -50.00    
   8   -50.00       1030.       1020.       1018.       1013.       1010.       1013.       1017.       1040.      -50.00    
   9   -50.00       1025.       1015.       1012.       1008.       1002.       1005.       1015.       1040.      -50.00    
  10   -50.00       1020.       1010.       1005.       996.0       996.0       994.0       1010.       1038.       1050.    
  11   -50.00       1005.       1000.       995.0       991.0       992.0       990.0       1000.       1025.      -50.00    
  12    977.0       978.0       978.0       982.0       982.0       983.0       982.0       990.0       1010.      -50.00    
  13    947.0       954.0       958.0       964.0       970.0       977.0       982.0       988.0       1000.      -50.00    
  14   -50.00       980.0       990.0       995.0       1000.       1000.       1000.       1000.       994.0      -50.00    
  15   -50.00      -50.00       1030.       1030.       1030.       1030.      -50.00      -50.00      -50.00      -50.00    



             MODEL LAYER BOTTOM EL. FOR LAYER   2
 READING ON UNIT    8 WITH FORMAT: (10F7.0)            

            1           2           3           4           5           6           7           8           9          10
 ........................................................................................................................
   1    1000.       1000.       0.000       0.000       0.000       0.000       0.000       0.000       0.000       0.000    
   2    1000.       900.0       900.0       0.000       0.000       950.0       950.0       950.0       0.000       0.000    
   3    0.000       850.0       670.0       680.0       680.0       770.0       770.0       890.0       0.000       0.000    
   4    925.0       850.0       650.0       650.0       650.0       680.0       740.0       850.0       950.0       0.000    
   5    925.0       800.0       650.0       600.0       600.0       600.0       650.0       720.0       850.0       950.0    
   6    925.0       800.0       650.0       600.0       550.0       600.0       650.0       720.0       850.0       970.0    
   7    925.0       800.0       650.0       600.0       550.0       600.0       650.0       720.0       950.0       0.000    
   8    0.000       850.0       700.0       650.0       570.0       600.0       700.0       850.0       950.0       0.000    
   9    0.000       850.0       700.0       650.0       540.0       580.0       700.0       850.0       950.0       0.000    
  10    0.000       850.0       700.0       630.0       530.0       580.0       650.0       800.0       900.0       950.0    
  11    0.000       850.0       700.0       620.0       580.0       620.0       700.0       800.0       900.0       0.000    
  12    900.0       830.0       710.0       640.0       600.0       650.0       700.0       800.0       900.0       0.000    
  13    900.0       810.0       750.0       700.0       650.0       700.0       750.0       800.0       900.0       0.000    
  14    0.000       950.0       850.0       850.0       850.0       850.0       850.0       850.0       850.0       0.000    
  15    0.000       0.000       950.0       950.0       950.0       950.0       0.000       0.000       0.000       0.000    


 STRESS PERIOD     LENGTH       TIME STEPS     MULTIPLIER FOR DELT    SS FLAG
 ----------------------------------------------------------------------------
        1         2628000.          1                    1.000         SS
        2         2628000.         15                    1.100         TR
        3         2628000.         15                    1.100         TR
        4         2628000.         15                    1.100         TR
        5         2628000.         15                    1.100         TR
        6         2628000.         15                    1.100         TR
        7         2628000.         15                    1.100         TR
        8         2628000.         15                    1.100         TR
        9         2628000.         15                    1.100         TR
       10         2628000.         15                    1.100         TR
       11         2628000.         15                    1.100         TR
       12         2628000.         15                    1.100         TR

 COMBINED STEADY-STATE AND TRANSIENT SIMULATION



 
 #Test Simulation 2-- Example problem using the UZF1 Package                     
 #Modified from example Problem 1 of SFR1 documentation report                   
 THE FREE FORMAT OPTION HAS BEEN SELECTED



                     BOUNDARY ARRAY FOR LAYER   1
 READING ON UNIT   75 WITH FORMAT: (20I4)              

                1           2           3           4           5           6           7           8           9          10
 ............................................................................................................................
   1            1           1           0           0           0           0           0           0           0           0
   2            1           1           1           0           0           1           1           1           0           0
   3            0           1           1           1           1           1           1           1           0           0
   4            1           1           1           1           1           1           1           1           1           0
   5            1           1           1           1           1           1           1           1           1           1
   6            1           1           1           1           1           1           1           1           1           1
   7            1           1           1           1           1           1           1           1           1           0
   8            0           1           1           1           1           1           1           1           1           0
   9            0           1           1           1           1           1           1           1           1           0
  10            0           1           1           1           1           1           1           1           1           1
  11            0           1           1           1           1           1           1           1           1           0
  12            1           1           1           1           1           1           1           1           1           0
  13            1           1           1           1           1           1           1           1           1           0
  14            0           1           1           1           1           1           1           1           1           0
  15            0           0           1           1           1           1           0           0           0           0



                     BOUNDARY ARRAY FOR LAYER   2
 READING ON UNIT   75 WITH FORMAT: (20I4)              

                1           2           3           4           5           6           7           8           9          10
 ............................................................................................................................
   1            1           1           0           0           0           0           0           0           0           0
   2            1           1           1           0           0           1           1           1           0           0
   3            0           1           1           1           1           1           1           1           0           0
   4            1           1           1           1           1           1           1           1           1           0
   5            1           1           1           1           1           1           1           1           1           1
   6            1           1           1           1           1           1           1           1           1           1
   7            1           1           1           1           1           1           1           1           1           0
   8            0           1           1           1           1           1           1           1           1           0
   9            0           1           1           1           1           1           1           1           1           0
  10            0           1           1           1           1           1           1           1           1           1
  11            0           1           1           1           1           1           1           1           1           0
  12            1           1           1           1           1           1           1           1           1           0
  13            1           1           1           1           1           1           1           1           1           0
  14            0           1           1           1           1           1           1           1           1           0
  15            0           0           1           1           1           1           0           0           0           0

 AQUIFER HEAD WILL BE SET TO   6999.0     AT ALL NO-FLOW NODES (IBOUND=0).



                       INITIAL HEAD FOR LAYER   1
 READING ON UNIT   75 WITH FORMAT: (10F8.0)            

            1           2           3           4           5           6           7           8           9          10
 ........................................................................................................................
   1    1093.       1089.       6999.       6999.       6999.       6999.       6999.       6999.       6999.       6999.    
   2    1090.       1087.       1081.       6999.       6999.       1072.       1071.       1071.       6999.       6999.    
   3    6999.       1079.       1078.       1074.       1072.       1071.       1069.       1068.       6999.       6999.    
   4    1069.       1071.       1070.       1067.       1065.       1064.       1064.       1066.       1066.       6999.    
   5    1065.       1064.       1063.       1062.       1061.       1061.       1060.       1062.       1066.       1068.    
   6    1060.       1058.       1057.       1056.       1056.       1057.       1057.       1059.       1062.       1066.    
   7    1056.       1053.       1052.       1051.       1051.       1052.       1053.       1055.       1056.       6999.    
   8    6999.       1046.       1046.       1046.       1046.       1046.       1048.       1050.       1050.       6999.    
   9    6999.       1039.       1039.       1039.       1040.       1041.       1042.       1043.       1044.       6999.    
  10    6999.       1031.       1032.       1033.       1034.       1035.       1037.       1038.       1039.       1042.    
  11    6999.       1021.       1023.       1027.       1029.       1030.       1032.       1034.       1036.       6999.    
  12    1001.       1009.       1015.       1020.       1023.       1026.       1029.       1030.       1034.       6999.    
  13    994.5      1000.0       1007.       1013.       1019.       1024.       1029.       1034.       1036.       6999.    
  14    6999.       1004.       1009.       1014.       1019.       1024.       1029.       1035.       1039.       6999.    
  15    6999.       6999.       1012.       1015.       1019.       1022.       6999.       6999.       6999.       6999.    



                       INITIAL HEAD FOR LAYER   2
 READING ON UNIT   75 WITH FORMAT: (10F8.0)            

            1           2           3           4           5           6           7           8           9          10
 ........................................................................................................................
   1    1093.       1089.       6999.       6999.       6999.       6999.       6999.       6999.       6999.       6999.    
   2    1090.       1087.       1081.       6999.       6999.       1072.       1071.       1071.       6999.       6999.    
   3    6999.       1079.       1078.       1074.       1072.       1071.       1069.       1068.       6999.       6999.    
   4    1069.       1071.       1070.       1067.       1065.       1064.       1064.       1066.       1066.       6999.    
   5    1065.       1064.       1063.       1062.       1061.       1061.       1060.       1062.       1066.       1068.    
   6    1060.       1058.       1057.       1056.       1056.       1057.       1057.       1059.       1062.       1066.    
   7    1056.       1053.       1052.       1051.       1051.       1052.       1053.       1055.       1056.       6999.    
   8    6999.       1046.       1046.       1046.       1046.       1046.       1048.       1050.       1050.       6999.    
   9    6999.       1039.       1039.       1039.       1040.       1041.       1042.       1043.       1044.       6999.    
  10    6999.       1031.       1032.       1033.       1034.       1035.       1037.       1038.       1039.       1042.    
  11    6999.       1021.       1023.       1027.       1029.       1030.       1032.       1034.       1036.       6999.    
  12    1001.       1009.       1015.       1020.       1023.       1026.       1029.       1030.       1034.       6999.    
  13    994.5      1000.0       1007.       1013.       1019.       1024.       1029.       1034.       1036.       6999.    
  14    6999.       1004.       1009.       1014.       1019.       1024.       1029.       1035.       1039.       6999.    
  15    6999.       6999.       1012.       1015.       1019.       1022.       6999.       6999.       6999.       6999.    

 OUTPUT CONTROL IS SPECIFIED ONLY AT TIME STEPS FOR WHICH OUTPUT IS DESIRED
 HEADS WILL BE SAVED WITH FORMAT: (10F10.3)           
 SAVED HEADS WILL BE LABELED
 HEAD PRINT FORMAT CODE IS   4    DRAWDOWN PRINT FORMAT CODE IS   0
 HEADS WILL BE SAVED ON UNIT   58    DRAWDOWNS WILL BE SAVED ON UNIT    0
 # MODFLOW-NWT

 NWT1 -- Newton Solver, VERSION 1.2.0, 3/01/2020
         INPUT READ FROM UNIT 13

 SPECIFIED OPTION:
 SOLVER INPUT VALUES ARE SPECIFIED BY USER
 ***XMD linear solver will be used***
 
   CONVERGENCE CRITERION OF   0.100000E-03 FOR HEAD SOLUTION
   AND A TOLERANCE OF   0.100000E+01 FOR FLOW SOLUTION AND 
   A MAXIMUM OF   500 OUTER ITERATIONS. 


   D-B-D REDUCTION FACTOR OF    0.960000E+00 AND 
   A D-B-D INCREASE FACTOR OF    0.100000E+00 AND 
   A D-B-D RELAXATION OF    0.000000E+00 AND 
   A MOMENTUM FACTOR OF    0.100000E+00 .


 ***BACKTRACKING IS INACTIVE***
 XMD -- LINEAR SOLUTION BY XMD PACKAGE VERSION 1.30
     BY MOTOMU IBARAKI, OHIO STATE UNIVERSITY, COLOMBUS, OH
                 INPUT READ FROM UNIT 13
 ACCELERATION METHOD                    (IACL) =         1
 NODE ORDERING FLAG                   (NORDER) =         1
 LEVEL OF FILL                         (LEVEL) =         5
 MAXIMUM NUMBER OF ORTHOGONALIZATIONS  (NORTH) =         7
 INDEX FOR USING REDUCED SYSTEM      (IREDSYS) =         1
 RESID. REDUCTION CONVERGE CRITERION  (RRCTOL) =  0.000000E+00
 INDEX FOR USING DROP TOLERANCE     (IDROPTOL) =         0
 DROP TOLERANCE VALUE                  (EPSRN) =  0.500000E-02
 CONVERGENCE CRITERIA OF           (HCLOSEXMD) =  0.100000E-02
 MAX. NUMBER OF LINEAR ITERATIONS  (MXITERXMD) =        50


 UPW1 -- UPSTREAM WEIGHTING FLOW PACKAGE, VERSION 1.2.0, 3/01/2020
         INPUT READ FROM UNIT  7

 #Layer-Property Flow Package input for test simulation 2
 No named parameters

   LAYER FLAGS:
 LAYER       LAYTYP          LAYAVG    CHANI           LAYVKA           LAYWET
 ---------------------------------------------------------------------------
    1             1             0     1.000E+00             0             0
    2             1             0     1.000E+00             0             0

   INTERPRETATION OF LAYER FLAGS:
                        INTERBLOCK     HORIZONTAL    DATA IN
         LAYER TYPE   TRANSMISSIVITY   ANISOTROPY   ARRAY VKA   WETTABILITY
 LAYER   (LAYTYP)        (LAYAVG)      (CHANI)     (LAYVKA)       (LAYWET)
 ---------------------------------------------------------------------------
    1   CONVERTIBLE      HARMONIC     1.000E+00    VERTICAL K  NON-WETTABLE
    2   CONVERTIBLE      HARMONIC     1.000E+00    VERTICAL K  NON-WETTABLE



              HYD. COND. ALONG ROWS FOR LAYER   1
 READING ON UNIT    7 WITH FORMAT: (10F5.0)            

            1           2           3           4           5           6           7           8           9          10
 ........................................................................................................................
   1   2.0000E-03  2.0000E-03   0.000       0.000       0.000       0.000       0.000       0.000       0.000       0.000    
   2   4.0000E-04  2.0000E-03  2.0000E-03   0.000       0.000      4.0000E-04  4.0000E-04  4.0000E-04   0.000       0.000    
   3    0.000      4.0000E-04  2.0000E-03  2.0000E-03  4.0000E-04  4.0000E-04  4.0000E-04  4.0000E-04   0.000       0.000    
   4   4.0000E-04  4.0000E-04  4.0000E-04  2.0000E-03  2.0000E-03  2.0000E-03  4.0000E-04  4.0000E-04  4.0000E-04   0.000    
   5   4.0000E-04  4.0000E-04  4.0000E-04  2.0000E-03  2.0000E-03  2.0000E-03  2.0000E-03  2.0000E-03  2.0000E-03  2.0000E-03
   6   4.0000E-04  4.0000E-04  4.0000E-04  2.0000E-03  2.0000E-03  2.0000E-03  2.0000E-03  2.0000E-03  4.0000E-04  4.0000E-04
   7   4.0000E-04  4.0000E-04  4.0000E-04  2.0000E-03  2.0000E-03  2.0000E-03  2.0000E-03  2.0000E-03  4.0000E-04   0.000    
   8    0.000      4.0000E-04  4.0000E-04  2.0000E-03  2.0000E-03  2.0000E-03  2.0000E-03  4.0000E-04  4.0000E-04   0.000    
   9    0.000      4.0000E-04  4.0000E-04  2.0000E-03  2.0000E-03  2.0000E-03  2.0000E-03  4.0000E-04  4.0000E-04   0.000    
  10    0.000      4.0000E-04  4.0000E-04  2.0000E-03  2.0000E-03  2.0000E-03  2.0000E-03  4.0000E-04  4.0000E-04  4.0000E-04
  11    0.000      4.0000E-04  4.0000E-04  2.0000E-03  2.0000E-03  2.0000E-03  2.0000E-03  4.0000E-04  4.0000E-04   0.000    
  12   4.0000E-04  4.0000E-04  2.0000E-03  2.0000E-03  2.0000E-03  2.0000E-03  2.0000E-03  4.0000E-04  4.0000E-04   0.000    
  13   2.0000E-03  2.0000E-03  2.0000E-03  2.0000E-03  2.0000E-03  2.0000E-03  2.0000E-03  2.0000E-03  2.0000E-03   0.000    
  14    0.000      4.0000E-04  4.0000E-04  4.0000E-04  4.0000E-04  4.0000E-04  4.0000E-04  4.0000E-04  2.0000E-03   0.000    
  15    0.000       0.000      4.0000E-04  4.0000E-04  4.0000E-04  4.0000E-04   0.000       0.000       0.000       0.000    

      VERTICAL HYD. COND. =  1.000000E-06 FOR LAYER   1

         SPECIFIC STORAGE =  1.000000E-06 FOR LAYER   1



                     SPECIFIC YIELD FOR LAYER   1
 READING ON UNIT    7 WITH FORMAT: (10F5.0)            

            1           2           3           4           5           6           7           8           9          10
 ........................................................................................................................
   1   0.2000      0.2000       0.000       0.000       0.000       0.000       0.000       0.000       0.000       0.000    
   2   0.1000      0.2000      0.2000       0.000       0.000      0.1000      0.1000      0.1000       0.000       0.000    
   3    0.000      0.1000      0.2000      0.2000      0.1000      0.1000      0.1000      0.1000       0.000       0.000    
   4   0.1000      0.1000      0.1000      0.2000      0.2000      0.2000      0.1000      0.1000      0.1000       0.000    
   5   0.1000      0.1000      0.1000      0.2000      0.2000      0.2000      0.2000      0.2000      0.2000      0.2000    
   6   0.1000      0.1000      0.1000      0.2000      0.2000      0.2000      0.2000      0.2000      0.1000      0.1000    
   7   0.1000      0.1000      0.1000      0.2000      0.2000      0.2000      0.2000      0.2000      0.1000       0.000    
   8    0.000      0.1000      0.1000      0.2000      0.2000      0.2000      0.2000      0.1000      0.1000       0.000    
   9    0.000      0.1000      0.1000      0.2000      0.2000      0.2000      0.2000      0.1000      0.1000       0.000    
  10    0.000      0.1000      0.1000      0.2000      0.2000      0.2000      0.2000      0.1000      0.1000      0.1000    
  11    0.000      0.1000      0.1000      0.2000      0.2000      0.2000      0.2000      0.1000      0.1000       0.000    
  12   0.1000      0.1000      0.2000      0.2000      0.2000      0.2000      0.2000      0.1000      0.1000       0.000    
  13   0.2000      0.2000      0.2000      0.2000      0.2000      0.2000      0.2000      0.2000      0.2000       0.000    
  14    0.000      0.1000      0.1000      0.1000      0.1000      0.1000      0.1000      0.1000      0.2000       0.000    
  15    0.000       0.000      0.1000      0.1000      0.1000      0.1000       0.000       0.000       0.000       0.000    



              HYD. COND. ALONG ROWS FOR LAYER   2
 READING ON UNIT    7 WITH FORMAT: (10F5.0)            

            1           2           3           4           5           6           7           8           9          10
 ........................................................................................................................
   1   2.0000E-03  2.0000E-03   0.000       0.000       0.000       0.000       0.000       0.000       0.000       0.000    
   2   4.0000E-04  2.0000E-03  2.0000E-03   0.000       0.000      4.0000E-04  4.0000E-04  4.0000E-04   0.000       0.000    
   3    0.000      4.0000E-04  2.0000E-03  2.0000E-03  4.0000E-04  4.0000E-04  4.0000E-04  4.0000E-04   0.000       0.000    
   4   4.0000E-04  4.0000E-04  4.0000E-04  2.0000E-03  2.0000E-03  2.0000E-03  4.0000E-04  4.0000E-04  4.0000E-04   0.000    
   5   4.0000E-04  4.0000E-04  4.0000E-04  2.0000E-03  2.0000E-03  2.0000E-03  2.0000E-03  2.0000E-03  2.0000E-03  2.0000E-03
   6   4.0000E-04  4.0000E-04  4.0000E-04  2.0000E-03  2.0000E-03  2.0000E-03  2.0000E-03  2.0000E-03  4.0000E-04  4.0000E-04
   7   4.0000E-04  4.0000E-04  4.0000E-04  2.0000E-03  2.0000E-03  2.0000E-03  2.0000E-03  2.0000E-03  4.0000E-04   0.000    
   8    0.000      4.0000E-04  4.0000E-04  2.0000E-03  2.0000E-03  2.0000E-03  2.0000E-03  4.0000E-04  4.0000E-04   0.000    
   9    0.000      4.0000E-04  4.0000E-04  2.0000E-03  2.0000E-03  2.0000E-03  2.0000E-03  4.0000E-04  4.0000E-04   0.000    
  10    0.000      4.0000E-04  4.0000E-04  2.0000E-03  2.0000E-03  2.0000E-03  2.0000E-03  4.0000E-04  4.0000E-04  4.0000E-04
  11    0.000      4.0000E-04  4.0000E-04  2.0000E-03  2.0000E-03  2.0000E-03  2.0000E-03  4.0000E-04  4.0000E-04   0.000    
  12   4.0000E-04  4.0000E-04  2.0000E-03  2.0000E-03  2.0000E-03  2.0000E-03  2.0000E-03  4.0000E-04  4.0000E-04   0.000    
  13   2.0000E-03  2.0000E-03  2.0000E-03  2.0000E-03  2.0000E-03  2.0000E-03  2.0000E-03  2.0000E-03  2.0000E-03   0.000    
  14    0.000      4.0000E-04  4.0000E-04  4.0000E-04  4.0000E-04  4.0000E-04  4.0000E-04  4.0000E-04  2.0000E-03   0.000    
  15    0.000       0.000      4.0000E-04  4.0000E-04  4.0000E-04  4.0000E-04   0.000       0.000       0.000       0.000    

      VERTICAL HYD. COND. =  1.000000E-06 FOR LAYER   2

         SPECIFIC STORAGE =  1.000000E-06 FOR LAYER   2



                     SPECIFIC YIELD FOR LAYER   2
 READING ON UNIT    7 WITH FORMAT: (10F5.0)            

            1           2           3           4           5           6           7           8           9          10
 ........................................................................................................................
   1   0.2000      0.2000       0.000       0.000       0.000       0.000       0.000       0.000       0.000       0.000    
   2   0.1000      0.2000      0.2000       0.000       0.000      0.1000      0.1000      0.1000       0.000       0.000    
   3    0.000      0.1000      0.2000      0.2000      0.1000      0.1000      0.1000      0.1000       0.000       0.000    
   4   0.1000      0.1000      0.1000      0.2000      0.2000      0.2000      0.1000      0.1000      0.1000       0.000    
   5   0.1000      0.1000      0.1000      0.2000      0.2000      0.2000      0.2000      0.2000      0.2000      0.2000    
   6   0.1000      0.1000      0.1000      0.2000      0.2000      0.2000      0.2000      0.2000      0.1000      0.1000    
   7   0.1000      0.1000      0.1000      0.2000      0.2000      0.2000      0.2000      0.2000      0.1000       0.000    
   8    0.000      0.1000      0.1000      0.2000      0.2000      0.2000      0.2000      0.1000      0.1000       0.000    
   9    0.000      0.1000      0.1000      0.2000      0.2000      0.2000      0.2000      0.1000      0.1000       0.000    
  10    0.000      0.1000      0.1000      0.2000      0.2000      0.2000      0.2000      0.1000      0.1000      0.1000    
  11    0.000      0.1000      0.1000      0.2000      0.2000      0.2000      0.2000      0.1000      0.1000       0.000    
  12   0.1000      0.1000      0.2000      0.2000      0.2000      0.2000      0.2000      0.1000      0.1000       0.000    
  13   0.2000      0.2000      0.2000      0.2000      0.2000      0.2000      0.2000      0.2000      0.2000       0.000    
  14    0.000      0.1000      0.1000      0.1000      0.1000      0.1000      0.1000      0.1000      0.2000       0.000    
  15    0.000       0.000      0.1000      0.1000      0.1000      0.1000       0.000       0.000       0.000       0.000    

 WEL -- WELL PACKAGE FOR NWT VERSION 1.2.0,  3/01/2020 INPUT READ FROM UNIT   16
 #Well Package input for test simulation 2
 No named parameters
 MAXIMUM OF     10 ACTIVE WELLS AT ONE TIME
 CELL-BY-CELL FLOWS WILL BE PRINTED WHEN ICBCFL NOT 0
 No named parameters


     0 Well parameters

 GHB -- GENERAL-HEAD BOUNDARY PACKAGE, VERSION 7, 5/2/2005
         INPUT READ FROM UNIT   17
 No named parameters
 MAXIMUM OF      2 ACTIVE GHB CELLS AT ONE TIME
 CELL-BY-CELL FLOWS WILL BE PRINTED WHEN ICBCFL NOT 0


     0 GHB parameters

 SFR7 -- STREAMFLOW ROUTING PACKAGE, VERSION 1.0.5, 2012-04-05
         INPUT READ FROM UNIT  15
 #SFR2 Package input for Test Simulation 2
 No named parameters


 NUMBER OF STREAM REACHES IS   36

 NUMBER OF STREAM SEGMENTS IS    8

 NUMBER OF STREAM PARAMETERS IS    0

 NUMBER OF STREAM SEGMENTS DEFINED USING PARAMETERS IS              0

 MAXIMUM ERROR FOR STREAM LEAKAGE RATES IS  1.00E-06

 CONSTANT FOR MANNINGS EQUATION IS  1.4860E+00



 STREAM OUTPUT WILL BE WRITTEN TO FILE ON UNIT   81


   STREAM NETWORK DESCRIPTION: 

   LAYER    ROW    COL   SEGMENT   REACH     LENGTH
                          NUMBER   NUMBER    IN CELL        
   --------------------------------------------------
      1      1      1       1        1    4.5000E+03
      1      2      2       1        2    7.0000E+03
      1      3      3       1        3    6.0000E+03
      1      3      4       1        4    5.5500E+03
      1      4      5       2        1    6.5000E+03
      1      5      6       2        2    5.0000E+03
      1      6      6       2        3    5.0000E+03
      1      7      6       2        4    5.0000E+03
      1      8      6       2        5    5.0000E+03
      1      3      5       3        1    5.0000E+03
      1      3      6       3        2    5.0000E+03
      1      3      7       3        3    4.5000E+03
      1      4      8       3        4    6.0000E+03
      1      5      8       3        5    5.0000E+03
      1      6      8       3        6    2.0000E+03
      1      5     10       4        1    2.5000E+03
      1      5      9       4        2    5.0000E+03
      1      6      8       4        3    3.5000E+03
      1      6      8       5        1    4.0000E+03
      1      7      7       5        2    5.0000E+03
      1      8      7       5        3    3.5000E+03
      1      8      6       5        4    2.5000E+03
      1      9      6       6        1    5.0000E+03
      1     10      7       6        2    5.0000E+03
      1     11      7       6        3    5.0000E+03
      1     12      7       6        4    5.0000E+03
      1     13      7       6        5    2.0000E+03
      1     14      9       7        1    5.0000E+03
      1     13      8       7        2    5.5000E+03
      1     13      7       7        3    5.0000E+03
      1     13      6       8        1    5.0000E+03
      1     13      5       8        2    5.0000E+03
      1     13      4       8        3    5.0000E+03
      1     13      3       8        4    5.0000E+03
      1     13      2       8        5    5.0000E+03
      1     13      1       8        6    3.0000E+03




 UZF1 -- UNSATURATED FLOW PACKAGE, VERSION 1.5, 09/10/2019
         INPUT READ FROM UNIT 19
 #UZF Package input for test simulation 2
 No named parameters



            AREAL EXTENT OF UZ FLOW
 READING ON UNIT   19 WITH FORMAT: (20I4)              

                1           2           3           4           5           6           7           8           9          10
 ............................................................................................................................
   1            1           1           0           0           0           0           0           0           0           0
   2            1           1           1           0           0           1           1           1           0           0
   3            0           1           1           1           1           1           1           1           0           0
   4            1           1           1           1           1           1           1           1           1           0
   5            1           1           1           1           1           1           1           1           1           1
   6            1           1           1           1           1           1           1           1           1           1
   7            1           1           1           1           1           1           1           1           1           0
   8            0           1           1           1           1           1           1           1           1           0
   9            0           1           1           1           1           1           1           1           1           0
  10            0           1           1           1           1           1           1           1           1           1
  11            0           1           1           1           1           1           1           1           1           0
  12            1           1           1           1           1           1           1           1           1           0
  13            1           1           1           1           1           1           1           1           1           0
  14            0           1           1           1           1           1           1           1           1           0
  15            0           0           1           1           1           1           0           0           0           0
 OPTION 4 -- RECHARGE IN UZF TO HIGHEST CELL WITH WATER TABLE



            ROUTING OVERLAND RUNOFF
 READING ON UNIT   19 WITH FORMAT: (20I4)              

                1           2           3           4           5           6           7           8           9          10
 ............................................................................................................................
   1            1           1           0           0           0           0           0           0           0           0
   2            1           1           1           0           0           3           3           3           0           0
   3            0           1           1           1           3           3           3           3           0           0
   4            8           8           2           2           2           2           2           3           3           0
   5            8           8           8           8           2           2           2           3           4           4
   6            8           8           8           8           8           2           2           4           4           4
   7            8           8           8           8           8           2           5           5           5           0
   8            0           8           8           8           8           2           5           5           5           0
   9            0           8           8           8           8           6           6           6           6           0
  10            0           8           8           8           8           6           6           6           6           6
  11            0           8           8           8           8           8           6           6           7           0
  12            8           8           8           8           8           8           6           7           7           0
  13            8           8           8           8           8           8           7           7           7           0
  14            0           8           8           8           8           8           7           7           7           0
  15            0           0           8           8           8           8           0           0           0           0



               SATURATED VERTICAL K
 READING ON UNIT   19 WITH FORMAT: (10F4.0)            

            1           2           3           4           5           6           7           8           9          10
 ........................................................................................................................
   1   1.0000E-06  1.0000E-06   0.000       0.000       0.000       0.000       0.000       0.000       0.000       0.000    
   2   1.0000E-06  1.0000E-06  1.0000E-06   0.000       0.000      1.0000E-06  1.0000E-06  1.0000E-06   0.000       0.000    
   3    0.000      1.0000E-06  1.0000E-06  1.0000E-06  1.0000E-06  1.0000E-06  1.0000E-06  1.0000E-06   0.000       0.000    
   4   1.0000E-06  1.0000E-06  1.0000E-06  1.0000E-06  1.0000E-06  1.0000E-06  1.0000E-06  1.0000E-06  1.0000E-06   0.000    
   5   1.0000E-06  1.0000E-06  1.0000E-06  1.0000E-06  1.0000E-06  1.0000E-06  1.0000E-06  1.0000E-06  1.0000E-06  1.0000E-06
   6   1.0000E-06  1.0000E-06  1.0000E-06  1.0000E-06  1.0000E-06  1.0000E-06  1.0000E-06  1.0000E-06  1.0000E-06  1.0000E-06
   7   1.0000E-06  1.0000E-06  1.0000E-06  1.0000E-06  1.0000E-06  1.0000E-06  1.0000E-06  1.0000E-06  1.0000E-06   0.000    
   8    0.000      1.0000E-06  1.0000E-06  1.0000E-06  1.0000E-06  1.0000E-06  1.0000E-06  1.0000E-06  1.0000E-06   0.000    
   9    0.000      1.0000E-06  1.0000E-06  1.0000E-06  1.0000E-06  1.0000E-06  1.0000E-06  1.0000E-06  1.0000E-06   0.000    
  10    0.000      1.0000E-06  1.0000E-06  1.0000E-06  1.0000E-06  1.0000E-06  1.0000E-06  1.0000E-06  1.0000E-06  1.0000E-06
  11    0.000      1.0000E-06  1.0000E-06  1.0000E-06  1.0000E-06  1.0000E-06  1.0000E-06  1.0000E-06  1.0000E-06   0.000    
  12   1.0000E-06  1.0000E-06  1.0000E-06  1.0000E-06  1.0000E-06  1.0000E-06  1.0000E-06  1.0000E-06  1.0000E-06   0.000    
  13   1.0000E-06  1.0000E-06  1.0000E-06  1.0000E-06  1.0000E-06  1.0000E-06  1.0000E-06  1.0000E-06  1.0000E-06   0.000    
  14    0.000      1.0000E-06  1.0000E-06  1.0000E-06  1.0000E-06  1.0000E-06  1.0000E-06  1.0000E-06  1.0000E-06   0.000    
  15    0.000       0.000      1.0000E-06  1.0000E-06  1.0000E-06  1.0000E-06   0.000       0.000       0.000       0.000    

     BROOKS-COREY EPSILON =   3.50000    

  SATURATED WATER CONTENT =  0.300000    

UNSATURATED FLOW RESULTS WILL BE PRINTED TO SEPARATE FILES FOR SELECTED MODEL CELLS, AND TIME STEPS AS DEFINED BY OUTPUT CONTROL PACKAGE 

SELECTED MODEL CELLS ARE: 
 ROW NUMBER  COLUMN NUMBER  FORTRAN UNIT NUMBER  OUTPUT OPTION


       3             6                 65                 1
       6             3                 66                 2
      10             5                 67                 3
       0             0                 68                 4



   9 GAGING STATIONS WERE SPECIFIED.
     (Lakes are identified by a negative value of the Lake Number)
     RECORDS WILL BE WRITTEN TO SEPARATE OUTPUT FILES REPRESENTED BY FOLLOWING UNIT NUMBERS:

 Stream Gages:
  GAGE #   SEGMENT   REACH   UNIT   OUTTYPE
       1       1       4      83       1
       2       2       3      84       1
       3       3       5      85       1
       4       4       3      86       1
       5       5       4      87       4
       6       6       5      88       4
       7       7       3      89       4
       8       8       6      90       4
       9       3       1      91       5




1
                            STRESS PERIOD NO.    1, LENGTH =   2628000.    
                            -----------------------------------------------

                              NUMBER OF TIME STEPS =     1

                               MULTIPLIER FOR DELT =     1.000

                            INITIAL TIME STEP SIZE =   2628000.    

 WELL NO.  LAYER   ROW   COL   STRESS RATE         
 --------------------------------------------------
      1      1      6      4      -2.000    
      2      1      6      5      -2.000    
      3      1      7      4      -2.000    
      4      1      7      5      -2.000    
      5      1      8      4      -2.000    
      6      1      8      5      -2.000    
      7      1      9      4      -2.000    
      8      1      9      5      -2.000    
      9      1     10      4      -2.000    
     10      1     10      5      -2.000    

     10 WELLS

 BOUND. NO. LAYER   ROW   COL     STAGE      CONDUCTANCE         
 ----------------------------------------------------------------
      1      1     13      1       988.0          0.3800E-01
      2      1     14      9       1045.          0.3800E-01

      2 GHB CELLS



 CLASSIFICATION & COUNT OF STREAM SEGMENTS BASED ON SOURCE OF INFLOW:

                HEADWATER     DIVERSION     RECEIVES TRIBUTARY FLOW
                ---------     ---------     -----------------------
                     3              1               4



                    INPUT DATA FOR EACH STREAM SEGMENT
 ---------------------------------------------------------------------------------------------

 SEGMENT    SEG.     INFLOW   OVERLAND   STREAM    STREAM   ICALC  OUTFLOW  DIVERSION PRIORITY
    NO.    LENGTH     RATE     RUNOFF      ET       PPT.    METH.  TO SEG.  FROM SEG.    NO.

      1  2.305E+04 2.500E+01 0.000E+00 0.000E+00 0.000E+00    4        2        0        0
      2  2.650E+04 0.000E+00 0.000E+00 0.000E+00 0.000E+00    1        6        0        0
      3  2.750E+04 1.000E+01 0.000E+00 0.000E+00 0.000E+00    0        5        1        0
      4  1.100E+04 1.000E+01 0.000E+00 0.000E+00 0.000E+00    1        5        0        0
      5  1.500E+04 0.000E+00 0.000E+00 0.000E+00 0.000E+00    3        6        0        0
      6  2.200E+04 0.000E+00 0.000E+00 0.000E+00 0.000E+00    1        8        0        0
      7  1.550E+04 1.500E+02 0.000E+00 0.000E+00 0.000E+00    2        8        0        0
      8  2.800E+04 0.000E+00 0.000E+00 0.000E+00 0.000E+00    2        0        0        0


         STREAMBED PROPERTIES AND STREAM DIMENSIONS

 SEGMENT     BED HYD. COND.      BED THICKNESS     ELEV.-TOP OF BED     WIDTH OF STREAM     DEPTH OF STREAM    STREAM ROUGHNESS
    No.     UPPER     LOWER     UPPER     LOWER     UPPER     LOWER     UPPER     LOWER     UPPER     LOWER   CHANNEL      BANK

     1  3.000E-05 3.000E-05 3.000E+00 3.000E+00 1.095E+03 1.075E+03
     2  3.000E-05 3.000E-05 3.000E+00 3.000E+00 1.075E+03 1.050E+03 1.200E+01 1.200E+01                     3.000E-02
     3  3.000E-05 3.000E-05 2.000E+00 2.000E+00 1.075E+03 1.060E+03 1.000E+01 6.000E+00 2.000E+00 1.000E+00
     4  3.000E-05 3.000E-05 3.000E+00 3.000E+00 1.080E+03 1.060E+03 1.000E+01 1.000E+01                     3.000E-02
     5  3.000E-05 3.000E-05 3.000E+00 3.000E+00 1.060E+03 1.045E+03
     6  3.000E-05 3.000E-05 3.000E+00 3.000E+00 1.045E+03 1.025E+03 1.200E+01 1.200E+01                     3.000E-02
     7  6.000E-05 6.000E-05 3.000E+00 3.000E+00 1.040E+03 1.025E+03                                         2.500E-02 4.500E-02
     8  6.000E-05 6.000E-05 3.000E+00 3.000E+00 1.025E+03 9.900E+02                                         2.500E-02 4.500E-02

  EIGHT POINT CROSS-SECTION DATA FOR SEGMENTS WITH ICALC = 2
    X VALUES X VALUES START FROM LEFT SIDE LOOKING DOWNSTREAM

     SEGMENT NO.        X1        X2        X3        X4        X5        X6        X7        X8
            7      0.000E+00 1.000E+01 8.000E+01 1.000E+02 1.500E+02 1.700E+02 2.400E+02 2.500E+02
            8      0.000E+00 1.000E+01 8.000E+01 1.000E+02 1.500E+02 1.700E+02 2.400E+02 2.500E+02

    Z VALUES ARE RELATIVE TO STREAMBED ELEVATION

     SEGMENT NO.          Z1        Z2        Z3        Z4        Z5        Z6        Z7        Z8
            7      2.000E+01 1.300E+01 1.000E+01 2.000E+00 0.000E+00 1.000E+01 1.300E+01 2.000E+01
            8      2.500E+01 1.700E+01 1.300E+01 4.000E+00 0.000E+00 1.000E+01 1.600E+01 2.000E+01

 STREAMFLOW RELATION WITH DEPTH IS BASED ON EQUATION Q = CDPTH*(DEPTH)**FDPTH
 STREAMFLOW RELATION WITH WIDTH IS BASED ON EQUATION Q = AWDTH*(WIDTH)**BWDTH

 SEGMENT NO.      CDPTH     FDPTH    AWDTH     BWDTH

          5 3.000E-01 3.500E-01 3.800E+00 6.000E-01

 STREAMFLOW RELATION WITH DEPTH AND WIDTH IS BASED ON TABULATED VALUES

  SEGMENT NO.   STREAMFLOW       DEPTH       WIDTH

          1     5.0000E-01   2.5000E-01   3.0000E+00
          1     1.0000E+00   4.0000E-01   3.5000E+00
          1     2.0000E+00   5.5000E-01   4.2000E+00
          1     4.0000E+00   7.0000E-01   5.3000E+00
          1     7.0000E+00   8.0000E-01   7.0000E+00
          1     1.0000E+01   9.0000E-01   8.5000E+00
          1     2.0000E+01   1.1000E+00   1.2000E+01
          1     3.0000E+01   1.2500E+00   1.4000E+01
          1     5.0000E+01   1.4000E+00   1.7000E+01
          1     7.5000E+01   1.7000E+00   2.0000E+01
          1     1.0000E+02   1.8000E+00   2.2000E+01






            AREAL INFILTRATION RATE
 READING ON UNIT   19 WITH FORMAT: (10F4.0)            

            1           2           3           4           5           6           7           8           9          10
 ........................................................................................................................
   1   1.0000E-09  2.0000E-09   0.000       0.000       0.000       0.000       0.000       0.000       0.000       0.000    
   2   2.0000E-09  1.0000E-09  2.0000E-09   0.000       0.000      8.0000E-09  8.0000E-09  5.0000E-09   0.000       0.000    
   3    0.000      5.0000E-09  1.0000E-09  1.0000E-09  8.0000E-09  8.0000E-09  5.0000E-09  5.0000E-09   0.000       0.000    
   4   8.0000E-09  5.0000E-09  1.0000E-09  1.0000E-09  1.0000E-09  1.0000E-09  1.0000E-09  1.0000E-09  2.0000E-09   0.000    
   5   8.0000E-09  5.0000E-09  1.0000E-09  1.0000E-09  1.0000E-09  1.0000E-09  1.0000E-09  1.0000E-09  1.0000E-09  1.0000E-09
   6   8.0000E-09  5.0000E-09  5.0000E-09  2.0000E-09  2.0000E-09  1.0000E-09  1.0000E-09  1.0000E-09  1.0000E-09  5.0000E-09
   7   8.0000E-09  5.0000E-09  5.0000E-09  2.0000E-09  2.0000E-09  1.0000E-09  1.0000E-09  2.0000E-09  2.0000E-09   0.000    
   8    0.000      5.0000E-09  5.0000E-09  2.0000E-09  2.0000E-09  1.0000E-09  1.0000E-09  2.0000E-09  5.0000E-09   0.000    
   9    0.000      5.0000E-09  5.0000E-09  2.0000E-09  2.0000E-09  1.0000E-09  1.0000E-09  2.0000E-09  5.0000E-09   0.000    
  10    0.000      5.0000E-09  5.0000E-09  2.0000E-09  2.0000E-09  1.0000E-09  1.0000E-09  2.0000E-09  5.0000E-09  8.0000E-09
  11    0.000      1.0000E-09  1.0000E-09  1.0000E-09  1.0000E-09  1.0000E-09  1.0000E-09  2.0000E-09  5.0000E-09   0.000    
  12   1.0000E-09  1.0000E-09  1.0000E-09  1.0000E-09  1.0000E-09  1.0000E-09  1.0000E-09  1.0000E-09  2.0000E-09   0.000    
  13   1.0000E-09  1.0000E-09  2.0000E-09  2.0000E-09  2.0000E-09  2.0000E-09  2.0000E-09  1.0000E-09  1.0000E-09   0.000    
  14    0.000      2.0000E-09  5.0000E-09  5.0000E-09  5.0000E-09  5.0000E-09  5.0000E-09  2.0000E-09  1.0000E-09   0.000    
  15    0.000       0.000      8.0000E-09  8.0000E-09  8.0000E-09  8.0000E-09   0.000       0.000       0.000       0.000    

                  ET RATE =  5.000000E-08

      ET EXTINCTION DEPTH =   15.0000    



           EXTINCTION WATER CONTENT
 READING ON UNIT   19 WITH FORMAT: (10F4.0)            

            1           2           3           4           5           6           7           8           9          10
 ........................................................................................................................
   1   0.1000      0.1000       0.000       0.000       0.000       0.000       0.000       0.000       0.000       0.000    
   2   0.2000      0.1000      0.1000       0.000       0.000      0.2000      0.2000      0.2000       0.000       0.000    
   3    0.000      0.2000      0.1000      0.1000      0.2000      0.2000      0.2000      0.2000       0.000       0.000    
   4   0.2000      0.2000      0.2000      0.1000      0.1000      0.1000      0.2000      0.2000      0.2000      0.1000    
   5   0.2000      0.2000      0.2000      0.1000      0.1000      0.1000      0.1000      0.1000      0.1000      0.1000    
   6   0.2000      0.2000      0.2000      0.1000      0.1000      0.1000      0.1000      0.1000      0.2000      0.2000    
   7   0.2000      0.2000      0.2000      0.1000      0.1000      0.1000      0.1000      0.1000      0.2000       0.000    
   8    0.000      0.2000      0.2000      0.1000      0.1000      0.1000      0.1000      0.2000      0.2000       0.000    
   9    0.000      0.2000      0.2000      0.1000      0.1000      0.1000      0.1000      0.2000      0.2000       0.000    
  10    0.000      0.2000      0.2000      0.1000      0.1000      0.1000      0.1000      0.2000      0.2000      0.2000    
  11    0.000      0.2000      0.2000      0.1000      0.1000      0.1000      0.1000      0.2000      0.2000       0.000    
  12   0.2000      0.2000      0.1000      0.1000      0.1000      0.1000      0.1000      0.2000      0.2000       0.000    
  13   0.1000      0.1000      0.1000      0.1000      0.1000      0.1000      0.1000      0.1000      0.1000       0.000    
  14    0.000      0.2000      0.2000      0.2000      0.2000      0.2000      0.2000      0.2000      0.1000       0.000    
  15    0.000       0.000      0.2000      0.2000      0.2000      0.2000       0.000       0.000       0.000       0.000    
 
 SOLVING FOR HEAD 
                                                   Max.-Head-Change                         Max.-Flux-Residual
  Residual-Control   Outer-Iter.   Inner-Iter.     Column Row Layer    Maximum-Head-Change  Column Row Layer    Maximum-Flux-Residual          L2-NORM 
          0                 1           4             4    7     1      -0.2160450613E+02       4   13    2         0.5130048276E+01      0.1508802466E+02
          0                 2           3             3   15     2      -0.3399289895E+01       6    6    1        -0.7377279494E+00      0.1958278024E+01
          0                 3           3             7   12     1      -0.1353362809E+01       7   12    1        -0.5017008130E+00      0.5942480867E+00
          0                 4           3             7   11     1      -0.5876074582E+00       7   11    1        -0.2368346404E+00      0.2500761954E+00
          0                 5           3             7   11     1      -0.1506978878E+00       7   11    1        -0.5729574922E-01      0.5829198349E-01
          0                 6           2             7   11     1      -0.3839522876E-01       7   11    1        -0.1480563012E-01      0.1495732320E-01
          0                 7           2             7   11     1      -0.9820992307E-02       7   11    1        -0.3758586530E-02      0.3792573452E-02
          0                 8           2             7   11     1      -0.2513468772E-02       7   11    1        -0.9642307710E-03      0.9727238697E-03
          0                 9           1             7   11     1      -0.6419111182E-03       7   11    1        -0.2463252284E-03      0.2484321782E-03
          0                10           1             7   11     1      -0.1596266644E-03       7   11    1        -0.6095812080E-04      0.6156098294E-04
          0                11           1             7   11     1      -0.4491247682E-04       7   11    1        -0.1711318822E-04      0.1776833010E-04

    ------------------------------------------------
       NWT REQUIRED           11 OUTER ITERATIONS 
       AND A TOTAL OF         25 INNER ITERATIONS.
    ------------------------------------------------

 OUTPUT CONTROL FOR STRESS PERIOD    1   TIME STEP    1
    PRINT BUDGET
    SAVE BUDGET

            WELLS   PERIOD    1   STEP   1
 WELL      1   LAYER   1   ROW     6   COL     4   RATE    -2.00000    
 WELL      2   LAYER   1   ROW     6   COL     5   RATE    -2.00000    
 WELL      3   LAYER   1   ROW     7   COL     4   RATE    -2.00000    
 WELL      4   LAYER   1   ROW     7   COL     5   RATE    -2.00000    
 WELL      5   LAYER   1   ROW     8   COL     4   RATE    -2.00000    
 WELL      6   LAYER   1   ROW     8   COL     5   RATE    -2.00000    
 WELL      7   LAYER   1   ROW     9   COL     4   RATE    -2.00000    
 WELL      8   LAYER   1   ROW     9   COL     5   RATE    -2.00000    
 WELL      9   LAYER   1   ROW    10   COL     4   RATE    -2.00000    
 WELL     10   LAYER   1   ROW    10   COL     5   RATE    -2.00000    

  HEAD DEP BOUNDS   PERIOD    1   STEP     1
 BOUNDARY      1   LAYER   1   ROW    13   COL     1   RATE   -0.280512    
 BOUNDARY      2   LAYER   1   ROW    14   COL     9   RATE    0.207725    



 STREAM LISTING     PERIOD      1   STEP        1

 LAYER ROW COL. STREAM  RCH.  FLOW INTO     FLOW TO   FLOW OUT OF   OVRLND.     DIRECT     STREAM       STREAM     STREAM     STREAM   STREAMBED  STREAMBED
                SEG.NO.  NO.  STRM. RCH.    AQUIFER    STRM. RCH.    RUNOFF     PRECIP       ET          HEAD       DEPTH      WIDTH   CONDCTNC.   GRADIENT

   1    1    1     1     1    2.5000E+01  1.1998E+00   2.3800E+01  0.000E+00  0.000E+00  0.000E+00  1.09422E+03  1.171E+00  1.294E+01  5.824E-01  6.867E-01
   1    2    2     1     2    2.3800E+01  2.7459E+00   2.1054E+01  0.000E+00  0.000E+00  0.000E+00  1.08920E+03  1.140E+00  1.253E+01  8.774E-01  1.043E+00
   1    3    3     1     3    2.1054E+01  2.9175E+00   1.8137E+01  0.000E+00  0.000E+00  0.000E+00  1.08351E+03  1.094E+00  1.188E+01  7.127E-01  1.365E+00
   1    3    4     1     4    1.8137E+01  2.4788E+00   1.5658E+01  0.000E+00  0.000E+00  0.000E+00  1.07846E+03  1.048E+00  1.103E+01  6.124E-01  1.349E+00
   1    4    5     2     1    5.6579E+00  2.6687E+00   2.9893E+00  0.000E+00  0.000E+00  0.000E+00  1.07236E+03  4.214E-01  1.200E+01  7.800E-01  1.140E+00
   1    5    6     2     2    2.9893E+00  1.9596E+00   1.0296E+00  0.000E+00  0.000E+00  0.000E+00  1.06678E+03  2.661E-01  1.200E+01  6.000E-01  1.089E+00
   1    6    6     2     3    1.0296E+00  1.0296E+00   0.0000E+00  0.000E+00  0.000E+00  0.000E+00  1.06183E+03  4.008E-02  1.200E+01  6.000E-01  1.013E+00
   1    7    6     2     4    0.0000E+00  0.0000E+00   0.0000E+00  0.000E+00  0.000E+00  0.000E+00  1.05708E+03  0.000E+00  1.200E+01  6.000E-01  1.000E+00
   1    8    6     2     5    0.0000E+00  0.0000E+00   0.0000E+00  0.000E+00  0.000E+00  0.000E+00  1.05236E+03  0.000E+00  1.200E+01  6.000E-01  1.000E+00
   1    3    5     3     1    1.0000E+01  2.0728E+00   7.9272E+00  0.000E+00  0.000E+00  0.000E+00  1.07555E+03  1.909E+00  9.636E+00  7.227E-01  1.434E+00
   1    3    6     3     2    7.9272E+00  1.8472E+00   6.0800E+00  0.000E+00  0.000E+00  0.000E+00  1.07264E+03  1.727E+00  8.909E+00  6.682E-01  1.382E+00
   1    3    7     3     3    6.0800E+00  1.3281E+00   4.7519E+00  0.000E+00  0.000E+00  0.000E+00  1.06987E+03  1.555E+00  8.218E+00  5.547E-01  1.197E+00
   1    4    8     3     4    4.7519E+00  1.6835E+00   3.0684E+00  0.000E+00  0.000E+00  0.000E+00  1.06682E+03  1.364E+00  7.455E+00  6.709E-01  1.255E+00
   1    5    8     3     5    3.0684E+00  1.5790E+00   1.4894E+00  0.000E+00  0.000E+00  0.000E+00  1.06362E+03  1.164E+00  6.655E+00  4.991E-01  1.582E+00
   1    6    8     3     6    1.4894E+00  5.5980E-01   9.2965E-01  0.000E+00  0.000E+00  0.000E+00  1.06158E+03  1.036E+00  6.145E+00  1.844E-01  1.518E+00
   1    5   10     4     1    1.0000E+01  9.0525E-01   9.0947E+00  0.000E+00  0.000E+00  0.000E+00  1.07835E+03  6.210E-01  1.000E+01  2.500E-01  1.207E+00
   1    5    9     4     2    9.0947E+00  1.7835E+00   7.3113E+00  0.000E+00  0.000E+00  0.000E+00  1.07148E+03  5.670E-01  1.000E+01  5.000E-01  1.189E+00
   1    6    8     4     3    7.3113E+00  1.2257E+00   6.0855E+00  0.000E+00  0.000E+00  0.000E+00  1.06368E+03  5.021E-01  1.000E+01  3.500E-01  1.167E+00
   1    6    8     5     1    7.0152E+00  3.9219E-01   6.6230E+00  0.000E+00  0.000E+00  0.000E+00  1.05859E+03  5.874E-01  1.202E+01  4.809E-01  2.718E-01
   1    7    7     5     2    6.6230E+00  1.3115E+00   5.3115E+00  0.000E+00  0.000E+00  0.000E+00  1.05406E+03  5.606E-01  1.110E+01  5.549E-01  7.878E-01
   1    8    7     5     3    5.3115E+00  9.5885E-01   4.3527E+00  0.000E+00  0.000E+00  0.000E+00  1.04977E+03  5.207E-01  9.778E+00  3.422E-01  9.339E-01
   1    8    6     5     4    4.3527E+00  7.5788E-01   3.5948E+00  0.000E+00  0.000E+00  0.000E+00  1.04674E+03  4.862E-01  8.696E+00  2.174E-01  1.162E+00
   1    9    6     6     1    3.5948E+00  1.9884E+00   1.6063E+00  0.000E+00  0.000E+00  0.000E+00  1.04304E+03  3.141E-01  1.200E+01  6.000E-01  1.105E+00
   1   10    7     6     2    1.6063E+00  1.3388E+00   2.6756E-01  0.000E+00  0.000E+00  0.000E+00  1.03835E+03  1.702E-01  1.200E+01  6.000E-01  7.438E-01
   1   11    7     6     3    2.6756E-01  2.6756E-01   0.0000E+00  0.000E+00  0.000E+00  0.000E+00  1.03365E+03  1.806E-02  1.200E+01  6.000E-01  9.994E-01
   1   12    7     6     4    0.0000E+00  0.0000E+00   0.0000E+00  0.000E+00  0.000E+00  0.000E+00  1.02909E+03  0.000E+00  1.200E+01  6.000E-01  7.126E-01
   1   13    7     6     5    0.0000E+00 -7.9898E-01   7.9898E-01  0.000E+00  0.000E+00  0.000E+00  1.02601E+03  1.021E-01  1.200E+01  2.400E-01 -1.110E+00
   1   14    9     7     1    1.5000E+02  1.8647E+00   1.4814E+02  0.000E+00  0.000E+00  0.000E+00  1.03987E+03  2.286E+00  5.529E+01  5.592E+00  1.111E-01
   1   13    8     7     2    1.4814E+02  1.9100E+00   1.4623E+02  0.000E+00  0.000E+00  0.000E+00  1.03478E+03  2.276E+00  5.524E+01  6.146E+00  1.036E-01
   1   13    7     7     3    1.4623E+02  1.9265E+00   1.4430E+02  0.000E+00  0.000E+00  0.000E+00  1.02969E+03  2.266E+00  5.520E+01  5.582E+00  1.150E-01
   1   13    6     8     1    1.4510E+02  6.3730E-01   1.4446E+02  0.000E+00  0.000E+00  0.000E+00  1.02465E+03  2.780E+00  4.031E+01  4.107E+00  5.172E-02
   1   13    5     8     2    1.4446E+02 -7.1707E-02   1.4453E+02  0.000E+00  0.000E+00  0.000E+00  1.01840E+03  2.778E+00  4.028E+01  4.104E+00 -5.824E-03
   1   13    4     8     3    1.4453E+02 -9.0001E-01   1.4543E+02  0.000E+00  0.000E+00  0.000E+00  1.01216E+03  2.781E+00  4.033E+01  4.109E+00 -7.300E-02
   1   13    3     8     4    1.4543E+02 -1.5788E+00   1.4701E+02  0.000E+00  0.000E+00  0.000E+00  1.00592E+03  2.790E+00  4.046E+01  4.123E+00 -1.277E-01
   1   13    2     8     5    1.4701E+02 -1.7393E+00   1.4875E+02  0.000E+00  0.000E+00  0.000E+00  9.99677E+02  2.802E+00  4.063E+01  4.140E+00 -1.400E-01
   1   13    1     8     6    1.4875E+02 -1.7284E+00   1.5048E+02  0.000E+00  0.000E+00  0.000E+00  9.94689E+02  2.814E+00  4.080E+01  2.495E+00 -2.309E-01



 UBDSV3 SAVING "           GW ET" ON UNIT  61 AT TIME STEP  1, STRESS PERIOD   1
 UBDSV3 SAVING "    UZF RECHARGE" ON UNIT  61 AT TIME STEP  1, STRESS PERIOD   1
 UBDSV3 SAVING " SURFACE LEAKAGE" ON UNIT  61 AT TIME STEP  1, STRESS PERIOD   1
 UBDSV3 SAVING "       HORT+DUNN" ON UNIT  61 AT TIME STEP  1, STRESS PERIOD   1
 UBDSV3 SAVING "  STORAGE CHANGE" ON UNIT  61 AT TIME STEP  1, STRESS PERIOD   1


UNSATURATED ZONE PACKAGE VOLUMETRIC BUDGET FOR  TIME STEP     1 STRESS PERIOD    1
  ------------------------------------------------------------------------------



     CUMULATIVE VOLUMES      L**3       RATES FOR THIS TIME STEP      L**3/T
     ------------------                 ------------------------

           IN:                                      IN:
           ---                                      ---
        INFILTRATION =    22272300.0000          INFILTRATION =           8.4750

          OUT:                                     OUT:
          ----                                     ----
              UZF ET =       0.0000E+00                UZF ET =       0.0000E+00
        UZF RECHARGE =    22272300.0000          UZF RECHARGE =           8.4750

            IN - OUT =       0.0000E+00              IN - OUT =       0.0000E+00

          STORAGE:                                 STORAGE:
          --------                                 --------
      STORAGE CHANGE =       0.0000E+00        STORAGE CHANGE =       0.0000E+00

 PERCENT DISCREPANCY IS DIFFERENCE BETWEEN IN-OUT MINUS CHANGE IN STORAGE
 DIVIDED BY THE AVERAGE OF IN AND OUT TIMES 100

 PERCENT DISCREPANCY =           0.00     PERCENT DISCREPANCY =           0.00






1
  VOLUMETRIC BUDGET FOR ENTIRE MODEL AT END OF TIME STEP    1, STRESS PERIOD   1
  ------------------------------------------------------------------------------

     CUMULATIVE VOLUMES      L**3       RATES FOR THIS TIME STEP      L**3/T
     ------------------                 ------------------------

           IN:                                      IN:
           ---                                      ---
             STORAGE     =           0.0000               STORAGE     =           0.0000
       CONSTANT HEAD     =           0.0000         CONSTANT HEAD     =           0.0000
               WELLS     =           0.0000                 WELLS     =           0.0000
     HEAD DEP BOUNDS     =      545901.6875       HEAD DEP BOUNDS     =           0.2077
      STREAM LEAKAGE     =   108637720.0000        STREAM LEAKAGE     =          41.3386
        UZF RECHARGE     =    22272316.0000          UZF RECHARGE     =           8.4750
               GW ET     =           0.0000                 GW ET     =           0.0000
     SURFACE LEAKAGE     =           0.0000       SURFACE LEAKAGE     =           0.0000

                TOTAL IN =   131455936.0000                  TOTAL IN =          50.0213

          OUT:                                     OUT:
          ----                                     ----
             STORAGE     =           0.0000               STORAGE     =           0.0000
       CONSTANT HEAD     =           0.0000         CONSTANT HEAD     =           0.0000
               WELLS     =    52560000.0000                 WELLS     =          20.0000
     HEAD DEP BOUNDS     =      737185.2500       HEAD DEP BOUNDS     =           0.2805
      STREAM LEAKAGE     =    17915570.0000        STREAM LEAKAGE     =           6.8172
        UZF RECHARGE     =           0.0000          UZF RECHARGE     =           0.0000
               GW ET     =    60243184.0000                 GW ET     =          22.9236
     SURFACE LEAKAGE     =           0.0000       SURFACE LEAKAGE     =           0.0000

               TOTAL OUT =   131455936.0000                 TOTAL OUT =          50.0213

                IN - OUT =           0.0000                  IN - OUT =           0.0000

     PERCENT DISCREPANCY =           0.00         PERCENT DISCREPANCY =           0.00






         TIME SUMMARY AT END OF TIME STEP    1 IN STRESS PERIOD    1
                    SECONDS     MINUTES      HOURS       DAYS        YEARS
                    -----------------------------------------------------------
   TIME STEP LENGTH 2.62800E+06  43800.      730.00      30.417     8.32763E-02
 STRESS PERIOD TIME 2.62800E+06  43800.      730.00      30.417     8.32763E-02
         TOTAL TIME 2.62800E+06  43800.      730.00      30.417     8.32763E-02
1
1
                            STRESS PERIOD NO.    2, LENGTH =   2628000.    
                            -----------------------------------------------

                              NUMBER OF TIME STEPS =    15

                               MULTIPLIER FOR DELT =     1.100

                            INITIAL TIME STEP SIZE =   82713.07    

 WELL NO.  LAYER   ROW   COL   STRESS RATE         
 --------------------------------------------------
      1      1      6      4      -2.000    
      2      1      6      5      -2.000    
      3      1      7      4      -2.000    
      4      1      7      5      -2.000    
      5      1      8      4      -2.000    
      6      1      8      5      -2.000    
      7      1      9      4      -2.000    
      8      1      9      5      -2.000    
      9      1     10      4      -2.000    
     10      1     10      5      -2.000    

     10 WELLS

 REUSING NON-PARAMETER GHB CELLS FROM LAST STRESS PERIOD

      2 GHB CELLS

 REUSING STREAM SEGMENT DATA FROM LAST STRESS PERIOD



            AREAL INFILTRATION RATE
 READING ON UNIT   19 WITH FORMAT: (10F4.0)            

            1           2           3           4           5           6           7           8           9          10
 ........................................................................................................................
   1   8.0000E-09  1.6000E-08   0.000       0.000       0.000       0.000       0.000       0.000       0.000       0.000    
   2   1.6000E-08  8.0000E-09  1.6000E-08   0.000       0.000      6.4000E-08  6.4000E-08  4.0000E-08   0.000       0.000    
   3    0.000      4.0000E-08  8.0000E-09  8.0000E-09  6.4000E-08  6.4000E-08  4.0000E-08  4.0000E-08   0.000       0.000    
   4   6.4000E-08  4.0000E-08  8.0000E-09  8.0000E-09  8.0000E-09  8.0000E-09  8.0000E-09  8.0000E-09  1.6000E-08   0.000    
   5   6.4000E-08  4.0000E-08  8.0000E-09  8.0000E-09  8.0000E-09  8.0000E-09  8.0000E-09  8.0000E-09  8.0000E-09  8.0000E-09
   6   6.4000E-08  4.0000E-08  4.0000E-08  1.6000E-08  1.6000E-08  8.0000E-09  8.0000E-09  8.0000E-09  8.0000E-09  4.0000E-08
   7   6.4000E-08  4.0000E-08  4.0000E-08  1.6000E-08  1.6000E-08  8.0000E-09  8.0000E-09  1.6000E-08  1.6000E-08   0.000    
   8    0.000      4.0000E-08  4.0000E-08  1.6000E-08  1.6000E-08  8.0000E-09  8.0000E-09  1.6000E-08  4.0000E-08   0.000    
   9    0.000      4.0000E-08  4.0000E-08  1.6000E-08  1.6000E-08  8.0000E-09  8.0000E-09  1.6000E-08  4.0000E-08   0.000    
  10    0.000      4.0000E-08  4.0000E-08  1.6000E-08  1.6000E-08  8.0000E-09  8.0000E-09  1.6000E-08  4.0000E-08  6.4000E-08
  11    0.000      8.0000E-09  8.0000E-09  8.0000E-09  8.0000E-09  8.0000E-09  8.0000E-09  1.6000E-08  4.0000E-08   0.000    
  12   8.0000E-09  8.0000E-09  8.0000E-09  8.0000E-09  8.0000E-09  8.0000E-09  8.0000E-09  8.0000E-09  1.6000E-08   0.000    
  13   8.0000E-09  8.0000E-09  1.6000E-08  1.6000E-08  1.6000E-08  1.6000E-08  1.6000E-08  8.0000E-09  8.0000E-09   0.000    
  14    0.000      1.6000E-08  4.0000E-08  4.0000E-08  4.0000E-08  4.0000E-08  4.0000E-08  1.6000E-08  8.0000E-09   0.000    
  15    0.000       0.000      6.4000E-08  6.4000E-08  6.4000E-08  6.4000E-08   0.000       0.000       0.000       0.000    

                  ET RATE =  5.000000E-08

 USING ET EXTINCTION DEPTH FROM PREVIOUS STRESS PERIOD. CURRENT PERIOD IS:       2

 USING EXTINCTION WATER CONTENT FROM PREVIOUS STRESS PERIOD. CURRENT PERIOD IS:       2
 
 SOLVING FOR HEAD 
                                                   Max.-Head-Change                         Max.-Flux-Residual
  Residual-Control   Outer-Iter.   Inner-Iter.     Column Row Layer    Maximum-Head-Change  Column Row Layer    Maximum-Flux-Residual          L2-NORM 
          0                 1           2             6   15     2      -0.5025465899E+00       5   15    2        -0.1999991098E+00      0.3374066716E+00
          0                 2           2             6   15     2       0.4758515725E-01       6   15    1        -0.3617851078E-01      0.4861149935E-01
          0                 3           2             6   15     2      -0.2894595530E-02       6   15    1        -0.2242367269E-02      0.3080734416E-02
          0                 4           1             5   15     2       0.5394746262E-04       6   15    1        -0.6011373724E-03      0.6289426803E-03

    ------------------------------------------------
       NWT REQUIRED            4 OUTER ITERATIONS 
       AND A TOTAL OF          7 INNER ITERATIONS.
    ------------------------------------------------

 OUTPUT CONTROL FOR STRESS PERIOD    2   TIME STEP    1
    PRINT BUDGET
    SAVE BUDGET

            WELLS   PERIOD    2   STEP   1
 WELL      1   LAYER   1   ROW     6   COL     4   RATE    -2.00000    
 WELL      2   LAYER   1   ROW     6   COL     5   RATE    -2.00000    
 WELL      3   LAYER   1   ROW     7   COL     4   RATE    -2.00000    
 WELL      4   LAYER   1   ROW     7   COL     5   RATE    -2.00000    
 WELL      5   LAYER   1   ROW     8   COL     4   RATE    -2.00000    
 WELL      6   LAYER   1   ROW     8   COL     5   RATE    -2.00000    
 WELL      7   LAYER   1   ROW     9   COL     4   RATE    -2.00000    
 WELL      8   LAYER   1   ROW     9   COL     5   RATE    -2.00000    
 WELL      9   LAYER   1   ROW    10   COL     4   RATE    -2.00000    
 WELL     10   LAYER   1   ROW    10   COL     5   RATE    -2.00000    

  HEAD DEP BOUNDS   PERIOD    2   STEP     1
 BOUNDARY      1   LAYER   1   ROW    13   COL     1   RATE   -0.280512    
 BOUNDARY      2   LAYER   1   ROW    14   COL     9   RATE    0.207725    



 STREAM LISTING     PERIOD      2   STEP        1

 LAYER ROW COL. STREAM  RCH.  FLOW INTO     FLOW TO   FLOW OUT OF   OVRLND.     DIRECT     STREAM       STREAM     STREAM     STREAM   STREAMBED  STREAMBED
                SEG.NO.  NO.  STRM. RCH.    AQUIFER    STRM. RCH.    RUNOFF     PRECIP       ET          HEAD       DEPTH      WIDTH   CONDCTNC.   GRADIENT

   1    1    1     1     1    2.5000E+01  1.1998E+00   2.3800E+01  0.000E+00  0.000E+00  0.000E+00  1.09422E+03  1.171E+00  1.294E+01  5.824E-01  6.867E-01
   1    2    2     1     2    2.3800E+01  2.7459E+00   2.1054E+01  0.000E+00  0.000E+00  0.000E+00  1.08920E+03  1.140E+00  1.253E+01  8.774E-01  1.043E+00
   1    3    3     1     3    2.1054E+01  2.9175E+00   1.8137E+01  0.000E+00  0.000E+00  0.000E+00  1.08351E+03  1.094E+00  1.188E+01  7.127E-01  1.365E+00
   1    3    4     1     4    1.8137E+01  2.4788E+00   1.5658E+01  0.000E+00  0.000E+00  0.000E+00  1.07846E+03  1.048E+00  1.103E+01  6.124E-01  1.349E+00
   1    4    5     2     1    5.6579E+00  2.6687E+00   2.9893E+00  0.000E+00  0.000E+00  0.000E+00  1.07236E+03  4.214E-01  1.200E+01  7.800E-01  1.140E+00
   1    5    6     2     2    2.9893E+00  1.9596E+00   1.0296E+00  0.000E+00  0.000E+00  0.000E+00  1.06678E+03  2.661E-01  1.200E+01  6.000E-01  1.089E+00
   1    6    6     2     3    1.0296E+00  1.0296E+00   0.0000E+00  0.000E+00  0.000E+00  0.000E+00  1.06183E+03  4.008E-02  1.200E+01  6.000E-01  1.013E+00
   1    7    6     2     4    0.0000E+00  0.0000E+00   0.0000E+00  0.000E+00  0.000E+00  0.000E+00  1.05708E+03  0.000E+00  1.200E+01  6.000E-01  1.000E+00
   1    8    6     2     5    0.0000E+00  0.0000E+00   0.0000E+00  0.000E+00  0.000E+00  0.000E+00  1.05236E+03  0.000E+00  1.200E+01  6.000E-01  1.000E+00
   1    3    5     3     1    1.0000E+01  2.0728E+00   7.9272E+00  0.000E+00  0.000E+00  0.000E+00  1.07555E+03  1.909E+00  9.636E+00  7.227E-01  1.434E+00
   1    3    6     3     2    7.9272E+00  1.8472E+00   6.0800E+00  0.000E+00  0.000E+00  0.000E+00  1.07264E+03  1.727E+00  8.909E+00  6.682E-01  1.382E+00
   1    3    7     3     3    6.0800E+00  1.3281E+00   4.7519E+00  0.000E+00  0.000E+00  0.000E+00  1.06987E+03  1.555E+00  8.218E+00  5.547E-01  1.197E+00
   1    4    8     3     4    4.7519E+00  1.6835E+00   3.0684E+00  0.000E+00  0.000E+00  0.000E+00  1.06682E+03  1.364E+00  7.455E+00  6.709E-01  1.255E+00
   1    5    8     3     5    3.0684E+00  1.5790E+00   1.4894E+00  0.000E+00  0.000E+00  0.000E+00  1.06362E+03  1.164E+00  6.655E+00  4.991E-01  1.582E+00
   1    6    8     3     6    1.4894E+00  5.5980E-01   9.2965E-01  0.000E+00  0.000E+00  0.000E+00  1.06158E+03  1.036E+00  6.145E+00  1.844E-01  1.518E+00
   1    5   10     4     1    1.0000E+01  9.0525E-01   9.0947E+00  0.000E+00  0.000E+00  0.000E+00  1.07835E+03  6.210E-01  1.000E+01  2.500E-01  1.207E+00
   1    5    9     4     2    9.0947E+00  1.7835E+00   7.3113E+00  0.000E+00  0.000E+00  0.000E+00  1.07148E+03  5.670E-01  1.000E+01  5.000E-01  1.189E+00
   1    6    8     4     3    7.3113E+00  1.2257E+00   6.0855E+00  0.000E+00  0.000E+00  0.000E+00  1.06368E+03  5.021E-01  1.000E+01  3.500E-01  1.167E+00
   1    6    8     5     1    7.0152E+00  3.9219E-01   6.6230E+00  0.000E+00  0.000E+00  0.000E+00  1.05859E+03  5.874E-01  1.202E+01  4.809E-01  2.718E-01
   1    7    7     5     2    6.6230E+00  1.3115E+00   5.3115E+00  0.000E+00  0.000E+00  0.000E+00  1.05406E+03  5.606E-01  1.110E+01  5.549E-01  7.878E-01
   1    8    7     5     3    5.3115E+00  9.5885E-01   4.3527E+00  0.000E+00  0.000E+00  0.000E+00  1.04977E+03  5.207E-01  9.778E+00  3.422E-01  9.339E-01
   1    8    6     5     4    4.3527E+00  7.5788E-01   3.5948E+00  0.000E+00  0.000E+00  0.000E+00  1.04674E+03  4.862E-01  8.696E+00  2.174E-01  1.162E+00
   1    9    6     6     1    3.5948E+00  1.9884E+00   1.6063E+00  0.000E+00  0.000E+00  0.000E+00  1.04304E+03  3.141E-01  1.200E+01  6.000E-01  1.105E+00
   1   10    7     6     2    1.6063E+00  1.3388E+00   2.6756E-01  0.000E+00  0.000E+00  0.000E+00  1.03835E+03  1.702E-01  1.200E+01  6.000E-01  7.438E-01
   1   11    7     6     3    2.6756E-01  2.6756E-01   0.0000E+00  0.000E+00  0.000E+00  0.000E+00  1.03365E+03  1.806E-02  1.200E+01  6.000E-01  9.994E-01
   1   12    7     6     4    0.0000E+00  0.0000E+00   0.0000E+00  0.000E+00  0.000E+00  0.000E+00  1.02909E+03  0.000E+00  1.200E+01  6.000E-01  7.126E-01
   1   13    7     6     5    0.0000E+00 -7.9898E-01   7.9898E-01  0.000E+00  0.000E+00  0.000E+00  1.02601E+03  1.021E-01  1.200E+01  2.400E-01 -1.110E+00
   1   14    9     7     1    1.5000E+02  1.8647E+00   1.4814E+02  0.000E+00  0.000E+00  0.000E+00  1.03987E+03  2.286E+00  5.529E+01  5.592E+00  1.111E-01
   1   13    8     7     2    1.4814E+02  1.9101E+00   1.4623E+02  0.000E+00  0.000E+00  0.000E+00  1.03478E+03  2.276E+00  5.524E+01  6.146E+00  1.036E-01
   1   13    7     7     3    1.4623E+02  1.9265E+00   1.4430E+02  0.000E+00  0.000E+00  0.000E+00  1.02969E+03  2.266E+00  5.520E+01  5.582E+00  1.150E-01
   1   13    6     8     1    1.4510E+02  6.3733E-01   1.4446E+02  0.000E+00  0.000E+00  0.000E+00  1.02465E+03  2.780E+00  4.031E+01  4.107E+00  5.172E-02
   1   13    5     8     2    1.4446E+02 -7.1680E-02   1.4453E+02  0.000E+00  0.000E+00  0.000E+00  1.01840E+03  2.778E+00  4.028E+01  4.104E+00 -5.822E-03
   1   13    4     8     3    1.4453E+02 -9.0000E-01   1.4543E+02  0.000E+00  0.000E+00  0.000E+00  1.01216E+03  2.781E+00  4.033E+01  4.109E+00 -7.300E-02
   1   13    3     8     4    1.4543E+02 -1.5788E+00   1.4701E+02  0.000E+00  0.000E+00  0.000E+00  1.00592E+03  2.790E+00  4.046E+01  4.123E+00 -1.277E-01
   1   13    2     8     5    1.4701E+02 -1.7393E+00   1.4875E+02  0.000E+00  0.000E+00  0.000E+00  9.99677E+02  2.802E+00  4.063E+01  4.140E+00 -1.400E-01
   1   13    1     8     6    1.4875E+02 -1.7284E+00   1.5048E+02  0.000E+00  0.000E+00  0.000E+00  9.94689E+02  2.814E+00  4.080E+01  2.495E+00 -2.309E-01



 UBDSV3 SAVING "           GW ET" ON UNIT  61 AT TIME STEP  1, STRESS PERIOD   2
 UBDSV3 SAVING "    UZF RECHARGE" ON UNIT  61 AT TIME STEP  1, STRESS PERIOD   2
 UBDSV3 SAVING " SURFACE LEAKAGE" ON UNIT  61 AT TIME STEP  1, STRESS PERIOD   2
 UBDSV3 SAVING "       HORT+DUNN" ON UNIT  61 AT TIME STEP  1, STRESS PERIOD   2
 UBDSV3 SAVING "  STORAGE CHANGE" ON UNIT  61 AT TIME STEP  1, STRESS PERIOD   2


UNSATURATED ZONE PACKAGE VOLUMETRIC BUDGET FOR  TIME STEP     1 STRESS PERIOD    2
  ------------------------------------------------------------------------------



     CUMULATIVE VOLUMES      L**3       RATES FOR THIS TIME STEP      L**3/T
     ------------------                 ------------------------

           IN:                                      IN:
           ---                                      ---
        INFILTRATION =    27880246.0039          INFILTRATION =          67.8000

          OUT:                                     OUT:
          ----                                     ----
              UZF ET =       0.0000E+00                UZF ET =       0.0000E+00
        UZF RECHARGE =    22956394.4094          UZF RECHARGE =           8.2707

            IN - OUT =     4923851.5945              IN - OUT =          59.5293

          STORAGE:                                 STORAGE:
          --------                                 --------
      STORAGE CHANGE =     4923851.6463        STORAGE CHANGE =          59.5293

 PERCENT DISCREPANCY IS DIFFERENCE BETWEEN IN-OUT MINUS CHANGE IN STORAGE
 DIVIDED BY THE AVERAGE OF IN AND OUT TIMES 100

 PERCENT DISCREPANCY =           0.00     PERCENT DISCREPANCY =           0.00






1
  VOLUMETRIC BUDGET FOR ENTIRE MODEL AT END OF TIME STEP    1, STRESS PERIOD   2
  ------------------------------------------------------------------------------

     CUMULATIVE VOLUMES      L**3       RATES FOR THIS TIME STEP      L**3/T
     ------------------                 ------------------------

           IN:                                      IN:
           ---                                      ---
             STORAGE     =       17584.5742               STORAGE     =           0.2126
       CONSTANT HEAD     =           0.0000         CONSTANT HEAD     =           0.0000
               WELLS     =           0.0000                 WELLS     =           0.0000
     HEAD DEP BOUNDS     =      563083.2500       HEAD DEP BOUNDS     =           0.2077
      STREAM LEAKAGE     =   112056968.0000        STREAM LEAKAGE     =          41.3386
        UZF RECHARGE     =    22956410.0000          UZF RECHARGE     =           8.2707
               GW ET     =           0.0000                 GW ET     =           0.0000
     SURFACE LEAKAGE     =           0.0000       SURFACE LEAKAGE     =           0.0000

                TOTAL IN =   135594048.0000                  TOTAL IN =          50.0297

          OUT:                                     OUT:
          ----                                     ----
             STORAGE     =         718.5712               STORAGE     =       8.6875E-03
       CONSTANT HEAD     =           0.0000         CONSTANT HEAD     =           0.0000
               WELLS     =    54214260.0000                 WELLS     =          20.0000
     HEAD DEP BOUNDS     =      760387.2500       HEAD DEP BOUNDS     =           0.2805
      STREAM LEAKAGE     =    18479436.0000        STREAM LEAKAGE     =           6.8171
        UZF RECHARGE     =           0.0000          UZF RECHARGE     =           0.0000
               GW ET     =    62139264.0000                 GW ET     =          22.9236
     SURFACE LEAKAGE     =           0.0000       SURFACE LEAKAGE     =           0.0000

               TOTAL OUT =   135594064.0000                 TOTAL OUT =          50.0299

                IN - OUT =         -16.0000                  IN - OUT =      -2.6321E-04

     PERCENT DISCREPANCY =          -0.00         PERCENT DISCREPANCY =          -0.00






         TIME SUMMARY AT END OF TIME STEP    1 IN STRESS PERIOD    2
                    SECONDS     MINUTES      HOURS       DAYS        YEARS
                    -----------------------------------------------------------
   TIME STEP LENGTH  82713.      1378.6      22.976     0.95733     2.62102E-03
 STRESS PERIOD TIME  82713.      1378.6      22.976     0.95733     2.62102E-03
         TOTAL TIME 2.71071E+06  45179.      752.98      31.374     8.58973E-02
1
 
 SOLVING FOR HEAD 
                                                   Max.-Head-Change                         Max.-Flux-Residual
  Residual-Control   Outer-Iter.   Inner-Iter.     Column Row Layer    Maximum-Head-Change  Column Row Layer    Maximum-Flux-Residual          L2-NORM 
          0                 1           2             6   15     2      -0.2735997705E-01       5   15    1         0.3568430793E-01      0.4968063278E-01
          0                 2           2             6   15     2       0.2787939787E-02       5   15    1         0.3894052912E-02      0.5578400616E-02
          0                 3           1             6   15     2      -0.1353670890E-03       5   15    1         0.8866297520E-03      0.1196684566E-02
          0                 4           1             4   15     1      -0.9440871046E-04       4   15    1        -0.2672955367E-03      0.3292345410E-03

    ------------------------------------------------
       NWT REQUIRED            4 OUTER ITERATIONS 
       AND A TOTAL OF          6 INNER ITERATIONS.
    ------------------------------------------------

 NO OUTPUT CONTROL FOR STRESS PERIOD    2   TIME STEP    2
 
 SOLVING FOR HEAD 
                                                   Max.-Head-Change                         Max.-Flux-Residual
  Residual-Control   Outer-Iter.   Inner-Iter.     Column Row Layer    Maximum-Head-Change  Column Row Layer    Maximum-Flux-Residual          L2-NORM 
          0                 1           1             5   15     1       0.1163140559E-02       5   15    1         0.2692128172E-01      0.3649142152E-01
          0                 2           1             5   15     2       0.2619348886E-03       5   15    1         0.4620868258E-02      0.6149194156E-02
          0                 3           1             4   15     1      -0.1470217807E-03       5   15    1         0.8197579299E-03      0.1137744775E-02
          0                 4           1             4   15     1      -0.1264583522E-03       4   15    1        -0.3294913186E-03      0.3813094375E-03
          0                 5           1             4   15     1      -0.1083307388E-03       4   15    1        -0.2829812730E-03      0.2858343799E-03
          0                 6           1             4   15     1      -0.9272693104E-04       4   15    1        -0.2423441302E-03      0.2428625435E-03

    ------------------------------------------------
       NWT REQUIRED            6 OUTER ITERATIONS 
       AND A TOTAL OF          6 INNER ITERATIONS.
    ------------------------------------------------

 NO OUTPUT CONTROL FOR STRESS PERIOD    2   TIME STEP    3
 
 SOLVING FOR HEAD 
                                                   Max.-Head-Change                         Max.-Flux-Residual
  Residual-Control   Outer-Iter.   Inner-Iter.     Column Row Layer    Maximum-Head-Change  Column Row Layer    Maximum-Flux-Residual          L2-NORM 
          0                 1           1             5   15     1       0.1272294502E-02       5   15    1         0.2637901128E-01      0.3587359987E-01
          0                 2           1             5   15     1       0.2235564120E-03       5   15    1         0.4634169874E-02      0.6156127117E-02
          0                 3           1             4   15     1      -0.1559665737E-03       5   15    1         0.8143677313E-03      0.1127853164E-02
          0                 4           1             4   15     1      -0.1323418911E-03       4   15    1        -0.3173654499E-03      0.3704309838E-03
          0                 5           1             4   15     1      -0.1117869835E-03       4   15    1        -0.2688398622E-03      0.2718673606E-03
          0                 6           1             4   15     1      -0.9433859058E-04       4   15    1        -0.2270078802E-03      0.2275889497E-03

    ------------------------------------------------
       NWT REQUIRED            6 OUTER ITERATIONS 
       AND A TOTAL OF          6 INNER ITERATIONS.
    ------------------------------------------------

 NO OUTPUT CONTROL FOR STRESS PERIOD    2   TIME STEP    4
 
 SOLVING FOR HEAD 
                                                   Max.-Head-Change                         Max.-Flux-Residual
  Residual-Control   Outer-Iter.   Inner-Iter.     Column Row Layer    Maximum-Head-Change  Column Row Layer    Maximum-Flux-Residual          L2-NORM 
          0                 1           2             5   15     1       0.1392012771E-02       5   15    1         0.2622843280E-01      0.3566826162E-01
          0                 2           1             5   15     1       0.2444530396E-03       5   15    1         0.4610198507E-02      0.6121404975E-02
          0                 3           1             4   15     1      -0.1684845986E-03       5   15    1         0.8091836795E-03      0.1120756393E-02
          0                 4           1             4   15     1      -0.1408627284E-03       4   15    1        -0.3112316830E-03      0.3647906484E-03
          0                 5           1             4   15     1      -0.1171847300E-03       4   15    1        -0.2597260677E-03      0.2629223692E-03
          0                 6           1             4   15     1      -0.9738846015E-04       4   15    1        -0.2159869903E-03      0.2166422087E-03

    ------------------------------------------------
       NWT REQUIRED            6 OUTER ITERATIONS 
       AND A TOTAL OF          7 INNER ITERATIONS.
    ------------------------------------------------

 OUTPUT CONTROL FOR STRESS PERIOD    2   TIME STEP    5
    PRINT BUDGET
    SAVE BUDGET

            WELLS   PERIOD    2   STEP   5
 WELL      1   LAYER   1   ROW     6   COL     4   RATE    -2.00000    
 WELL      2   LAYER   1   ROW     6   COL     5   RATE    -2.00000    
 WELL      3   LAYER   1   ROW     7   COL     4   RATE    -2.00000    
 WELL      4   LAYER   1   ROW     7   COL     5   RATE    -2.00000    
 WELL      5   LAYER   1   ROW     8   COL     4   RATE    -2.00000    
 WELL      6   LAYER   1   ROW     8   COL     5   RATE    -2.00000    
 WELL      7   LAYER   1   ROW     9   COL     4   RATE    -2.00000    
 WELL      8   LAYER   1   ROW     9   COL     5   RATE    -2.00000    
 WELL      9   LAYER   1   ROW    10   COL     4   RATE    -2.00000    
 WELL     10   LAYER   1   ROW    10   COL     5   RATE    -2.00000    

  HEAD DEP BOUNDS   PERIOD    2   STEP     5
 BOUNDARY      1   LAYER   1   ROW    13   COL     1   RATE   -0.280511    
 BOUNDARY      2   LAYER   1   ROW    14   COL     9   RATE    0.207725    



 STREAM LISTING     PERIOD      2   STEP        5

 LAYER ROW COL. STREAM  RCH.  FLOW INTO     FLOW TO   FLOW OUT OF   OVRLND.     DIRECT     STREAM       STREAM     STREAM     STREAM   STREAMBED  STREAMBED
                SEG.NO.  NO.  STRM. RCH.    AQUIFER    STRM. RCH.    RUNOFF     PRECIP       ET          HEAD       DEPTH      WIDTH   CONDCTNC.   GRADIENT

   1    1    1     1     1    2.5000E+01  1.1998E+00   2.3800E+01  0.000E+00  0.000E+00  0.000E+00  1.09422E+03  1.171E+00  1.294E+01  5.824E-01  6.867E-01
   1    2    2     1     2    2.3800E+01  2.7459E+00   2.1054E+01  0.000E+00  0.000E+00  0.000E+00  1.08920E+03  1.140E+00  1.253E+01  8.774E-01  1.043E+00
   1    3    3     1     3    2.1054E+01  2.9175E+00   1.8137E+01  0.000E+00  0.000E+00  0.000E+00  1.08351E+03  1.094E+00  1.188E+01  7.127E-01  1.365E+00
   1    3    4     1     4    1.8137E+01  2.4788E+00   1.5658E+01  0.000E+00  0.000E+00  0.000E+00  1.07846E+03  1.048E+00  1.103E+01  6.124E-01  1.349E+00
   1    4    5     2     1    5.6579E+00  2.6687E+00   2.9893E+00  0.000E+00  0.000E+00  0.000E+00  1.07236E+03  4.214E-01  1.200E+01  7.800E-01  1.140E+00
   1    5    6     2     2    2.9893E+00  1.9596E+00   1.0296E+00  0.000E+00  0.000E+00  0.000E+00  1.06678E+03  2.661E-01  1.200E+01  6.000E-01  1.089E+00
   1    6    6     2     3    1.0296E+00  1.0296E+00   0.0000E+00  0.000E+00  0.000E+00  0.000E+00  1.06183E+03  4.008E-02  1.200E+01  6.000E-01  1.013E+00
   1    7    6     2     4    0.0000E+00  0.0000E+00   0.0000E+00  0.000E+00  0.000E+00  0.000E+00  1.05708E+03  0.000E+00  1.200E+01  6.000E-01  1.000E+00
   1    8    6     2     5    0.0000E+00  0.0000E+00   0.0000E+00  0.000E+00  0.000E+00  0.000E+00  1.05236E+03  0.000E+00  1.200E+01  6.000E-01  1.000E+00
   1    3    5     3     1    1.0000E+01  2.0728E+00   7.9272E+00  0.000E+00  0.000E+00  0.000E+00  1.07555E+03  1.909E+00  9.636E+00  7.227E-01  1.434E+00
   1    3    6     3     2    7.9272E+00  1.8472E+00   6.0800E+00  0.000E+00  0.000E+00  0.000E+00  1.07264E+03  1.727E+00  8.909E+00  6.682E-01  1.382E+00
   1    3    7     3     3    6.0800E+00  1.3281E+00   4.7519E+00  0.000E+00  0.000E+00  0.000E+00  1.06987E+03  1.555E+00  8.218E+00  5.547E-01  1.197E+00
   1    4    8     3     4    4.7519E+00  1.6835E+00   3.0684E+00  0.000E+00  0.000E+00  0.000E+00  1.06682E+03  1.364E+00  7.455E+00  6.709E-01  1.255E+00
   1    5    8     3     5    3.0684E+00  1.5790E+00   1.4894E+00  0.000E+00  0.000E+00  0.000E+00  1.06362E+03  1.164E+00  6.655E+00  4.991E-01  1.582E+00
   1    6    8     3     6    1.4894E+00  5.5980E-01   9.2964E-01  0.000E+00  0.000E+00  0.000E+00  1.06158E+03  1.036E+00  6.145E+00  1.844E-01  1.518E+00
   1    5   10     4     1    1.0000E+01  9.0525E-01   9.0947E+00  0.000E+00  0.000E+00  0.000E+00  1.07835E+03  6.210E-01  1.000E+01  2.500E-01  1.207E+00
   1    5    9     4     2    9.0947E+00  1.7835E+00   7.3113E+00  0.000E+00  0.000E+00  0.000E+00  1.07148E+03  5.670E-01  1.000E+01  5.000E-01  1.189E+00
   1    6    8     4     3    7.3113E+00  1.2257E+00   6.0855E+00  0.000E+00  0.000E+00  0.000E+00  1.06368E+03  5.021E-01  1.000E+01  3.500E-01  1.167E+00
   1    6    8     5     1    7.0152E+00  3.9219E-01   6.6230E+00  0.000E+00  0.000E+00  0.000E+00  1.05859E+03  5.874E-01  1.202E+01  4.809E-01  2.718E-01
   1    7    7     5     2    6.6230E+00  1.3115E+00   5.3115E+00  0.000E+00  0.000E+00  0.000E+00  1.05406E+03  5.606E-01  1.110E+01  5.549E-01  7.878E-01
   1    8    7     5     3    5.3115E+00  9.5885E-01   4.3527E+00  0.000E+00  0.000E+00  0.000E+00  1.04977E+03  5.207E-01  9.778E+00  3.422E-01  9.339E-01
   1    8    6     5     4    4.3527E+00  7.5788E-01   3.5948E+00  0.000E+00  0.000E+00  0.000E+00  1.04674E+03  4.862E-01  8.696E+00  2.174E-01  1.162E+00
   1    9    6     6     1    3.5948E+00  1.9884E+00   1.6063E+00  0.000E+00  0.000E+00  0.000E+00  1.04304E+03  3.141E-01  1.200E+01  6.000E-01  1.105E+00
   1   10    7     6     2    1.6063E+00  1.3388E+00   2.6756E-01  0.000E+00  0.000E+00  0.000E+00  1.03835E+03  1.702E-01  1.200E+01  6.000E-01  7.438E-01
   1   11    7     6     3    2.6756E-01  2.6756E-01   0.0000E+00  0.000E+00  0.000E+00  0.000E+00  1.03365E+03  1.806E-02  1.200E+01  6.000E-01  9.994E-01
   1   12    7     6     4    0.0000E+00  0.0000E+00   0.0000E+00  0.000E+00  0.000E+00  0.000E+00  1.02909E+03  0.000E+00  1.200E+01  6.000E-01  7.126E-01
   1   13    7     6     5    0.0000E+00 -7.9897E-01   7.9897E-01  0.000E+00  0.000E+00  0.000E+00  1.02601E+03  1.021E-01  1.200E+01  2.400E-01 -1.110E+00
   1   14    9     7     1    1.5000E+02  1.8648E+00   1.4814E+02  0.000E+00  0.000E+00  0.000E+00  1.03987E+03  2.286E+00  5.529E+01  5.592E+00  1.111E-01
   1   13    8     7     2    1.4814E+02  1.9101E+00   1.4623E+02  0.000E+00  0.000E+00  0.000E+00  1.03478E+03  2.276E+00  5.524E+01  6.146E+00  1.036E-01
   1   13    7     7     3    1.4623E+02  1.9267E+00   1.4430E+02  0.000E+00  0.000E+00  0.000E+00  1.02969E+03  2.266E+00  5.520E+01  5.582E+00  1.150E-01
   1   13    6     8     1    1.4510E+02  6.3754E-01   1.4446E+02  0.000E+00  0.000E+00  0.000E+00  1.02465E+03  2.780E+00  4.031E+01  4.107E+00  5.174E-02
   1   13    5     8     2    1.4446E+02 -7.1510E-02   1.4453E+02  0.000E+00  0.000E+00  0.000E+00  1.01840E+03  2.778E+00  4.028E+01  4.104E+00 -5.808E-03
   1   13    4     8     3    1.4453E+02 -8.9990E-01   1.4543E+02  0.000E+00  0.000E+00  0.000E+00  1.01216E+03  2.781E+00  4.033E+01  4.109E+00 -7.300E-02
   1   13    3     8     4    1.4543E+02 -1.5787E+00   1.4701E+02  0.000E+00  0.000E+00  0.000E+00  1.00592E+03  2.790E+00  4.046E+01  4.123E+00 -1.277E-01
   1   13    2     8     5    1.4701E+02 -1.7393E+00   1.4875E+02  0.000E+00  0.000E+00  0.000E+00  9.99677E+02  2.802E+00  4.063E+01  4.140E+00 -1.400E-01
   1   13    1     8     6    1.4875E+02 -1.7284E+00   1.5048E+02  0.000E+00  0.000E+00  0.000E+00  9.94689E+02  2.814E+00  4.080E+01  2.495E+00 -2.309E-01



 UBDSV3 SAVING "           GW ET" ON UNIT  61 AT TIME STEP  5, STRESS PERIOD   2
 UBDSV3 SAVING "    UZF RECHARGE" ON UNIT  61 AT TIME STEP  5, STRESS PERIOD   2
 UBDSV3 SAVING " SURFACE LEAKAGE" ON UNIT  61 AT TIME STEP  5, STRESS PERIOD   2
 UBDSV3 SAVING "       HORT+DUNN" ON UNIT  61 AT TIME STEP  5, STRESS PERIOD   2
 UBDSV3 SAVING "  STORAGE CHANGE" ON UNIT  61 AT TIME STEP  5, STRESS PERIOD   2


UNSATURATED ZONE PACKAGE VOLUMETRIC BUDGET FOR  TIME STEP     5 STRESS PERIOD    2
  ------------------------------------------------------------------------------



     CUMULATIVE VOLUMES      L**3       RATES FOR THIS TIME STEP      L**3/T
     ------------------                 ------------------------

           IN:                                      IN:
           ---                                      ---
        INFILTRATION =    56509372.9551          INFILTRATION =          67.8000

          OUT:                                     OUT:
          ----                                     ----
              UZF ET =       0.0000E+00                UZF ET =       0.0000E+00
        UZF RECHARGE =    26536125.3379          UZF RECHARGE =           8.4775

            IN - OUT =    29973247.6172              IN - OUT =          59.3225

          STORAGE:                                 STORAGE:
          --------                                 --------
      STORAGE CHANGE =    29973243.7900        STORAGE CHANGE =          59.3225

 PERCENT DISCREPANCY IS DIFFERENCE BETWEEN IN-OUT MINUS CHANGE IN STORAGE
 DIVIDED BY THE AVERAGE OF IN AND OUT TIMES 100

 PERCENT DISCREPANCY =           0.00     PERCENT DISCREPANCY =           0.00






1
  VOLUMETRIC BUDGET FOR ENTIRE MODEL AT END OF TIME STEP    5, STRESS PERIOD   2
  ------------------------------------------------------------------------------

     CUMULATIVE VOLUMES      L**3       RATES FOR THIS TIME STEP      L**3/T
     ------------------                 ------------------------

           IN:                                      IN:
           ---                                      ---
             STORAGE     =       39742.6445               STORAGE     =       5.1722E-02
       CONSTANT HEAD     =           0.0000         CONSTANT HEAD     =           0.0000
               WELLS     =           0.0000                 WELLS     =           0.0000
     HEAD DEP BOUNDS     =      650797.0000       HEAD DEP BOUNDS     =           0.2077
      STREAM LEAKAGE     =   129512696.0000        STREAM LEAKAGE     =          41.3391
        UZF RECHARGE     =    26536140.0000          UZF RECHARGE     =           8.4775
               GW ET     =           0.0000                 GW ET     =           0.0000
     SURFACE LEAKAGE     =           0.0000       SURFACE LEAKAGE     =           0.0000

                TOTAL IN =   156739376.0000                  TOTAL IN =          50.0760

          OUT:                                     OUT:
          ----                                     ----
             STORAGE     =       24354.9160               STORAGE     =       5.5420E-02
       CONSTANT HEAD     =           0.0000         CONSTANT HEAD     =           0.0000
               WELLS     =    62659428.0000                 WELLS     =          20.0000
     HEAD DEP BOUNDS     =      878835.6250       HEAD DEP BOUNDS     =           0.2805
      STREAM LEAKAGE     =    21357930.0000        STREAM LEAKAGE     =           6.8168
        UZF RECHARGE     =           0.0000          UZF RECHARGE     =           0.0000
               GW ET     =    71818936.0000                 GW ET     =          22.9235
     SURFACE LEAKAGE     =           0.0000       SURFACE LEAKAGE     =           0.0000

               TOTAL OUT =   156739488.0000                 TOTAL OUT =          50.0762

                IN - OUT =        -112.0000                  IN - OUT =      -1.9073E-04

     PERCENT DISCREPANCY =          -0.00         PERCENT DISCREPANCY =          -0.00






         TIME SUMMARY AT END OF TIME STEP    5 IN STRESS PERIOD    2
                    SECONDS     MINUTES      HOURS       DAYS        YEARS
                    -----------------------------------------------------------
   TIME STEP LENGTH 1.21100E+05  2018.3      33.639      1.4016     3.83743E-03
 STRESS PERIOD TIME 5.04972E+05  8416.2      140.27      5.8446     1.60016E-02
         TOTAL TIME 3.13297E+06  52216.      870.27      36.261     9.92779E-02
1
 
 SOLVING FOR HEAD 
                                                   Max.-Head-Change                         Max.-Flux-Residual
  Residual-Control   Outer-Iter.   Inner-Iter.     Column Row Layer    Maximum-Head-Change  Column Row Layer    Maximum-Flux-Residual          L2-NORM 
          0                 1           2             5   15     1       0.1522305359E-02       5   15    1         0.2608442419E-01      0.3546079160E-01
          0                 2           1             5   15     1       0.2671671223E-03       5   15    1         0.4582516547E-02      0.6082012733E-02
          0                 3           1             4   15     1      -0.1832840007E-03       5   15    1         0.8037740112E-03      0.1114357724E-02
          0                 4           1             4   15     1      -0.1507964883E-03       4   15    1        -0.3073092847E-03      0.3610388841E-03
          0                 5           1             4   15     1      -0.1233991058E-03       4   15    1        -0.2523287568E-03      0.2557010503E-03
          0                 6           1             4   15     1      -0.1008674935E-03       4   15    1        -0.2063992552E-03      0.2071419585E-03
          0                 7           1             4   15     1      -0.8243112395E-04       4   15    1        -0.1686981753E-03      0.1691632777E-03

    ------------------------------------------------
       NWT REQUIRED            7 OUTER ITERATIONS 
       AND A TOTAL OF          8 INNER ITERATIONS.
    ------------------------------------------------

 NO OUTPUT CONTROL FOR STRESS PERIOD    2   TIME STEP    6
 
 SOLVING FOR HEAD 
                                                   Max.-Head-Change                         Max.-Flux-Residual
  Residual-Control   Outer-Iter.   Inner-Iter.     Column Row Layer    Maximum-Head-Change  Column Row Layer    Maximum-Flux-Residual          L2-NORM 
          0                 1           2             5   15     1       0.1663848220E-02       5   15    1         0.2592908495E-01      0.3524527331E-01
          0                 2           1             5   15     1       0.2918089297E-03       5   15    1         0.4552153475E-02      0.6039048087E-02
          0                 3           1             4   15     1      -0.1895298215E-03       5   15    1         0.7978999669E-03      0.1101273215E-02
          0                 4           1             4   15     1      -0.1533188417E-03       4   15    1        -0.2884388925E-03      0.3443990073E-03
          0                 5           1             4   15     1      -0.1232638702E-03       4   15    1        -0.2327924286E-03      0.2364269828E-03
          0                 6           1             4   15     1      -0.9897366469E-04       4   15    1        -0.1870687134E-03      0.1878871944E-03

    ------------------------------------------------
       NWT REQUIRED            6 OUTER ITERATIONS 
       AND A TOTAL OF          7 INNER ITERATIONS.
    ------------------------------------------------

 NO OUTPUT CONTROL FOR STRESS PERIOD    2   TIME STEP    7
 
 SOLVING FOR HEAD 
                                                   Max.-Head-Change                         Max.-Flux-Residual
  Residual-Control   Outer-Iter.   Inner-Iter.     Column Row Layer    Maximum-Head-Change  Column Row Layer    Maximum-Flux-Residual          L2-NORM 
          0                 1           2             5   15     1       0.1817412567E-02       5   15    1         0.2575993023E-01      0.3498944539E-01
          0                 2           1             5   15     1       0.3185028086E-03       5   15    1         0.4519018403E-02      0.5992428431E-02
          0                 3           1             4   15     1      -0.2146950492E-03       5   15    1         0.7915043799E-03      0.1098970450E-02
          0                 4           1             4   15     1      -0.1704102543E-03       4   15    1        -0.2964371139E-03      0.3508418104E-03
          0                 5           1             4   15     1      -0.1343997648E-03       4   15    1        -0.2347278864E-03      0.2385295538E-03
          0                 6           1             4   15     1      -0.1058565430E-03       4   15    1        -0.1850327404E-03      0.1859858338E-03
          0                 7           1             4   15     1      -0.8335150833E-04       4   15    1        -0.1457207809E-03      0.1463196261E-03

    ------------------------------------------------
       NWT REQUIRED            7 OUTER ITERATIONS 
       AND A TOTAL OF          8 INNER ITERATIONS.
    ------------------------------------------------

 NO OUTPUT CONTROL FOR STRESS PERIOD    2   TIME STEP    8
 
 SOLVING FOR HEAD 
                                                   Max.-Head-Change                         Max.-Flux-Residual
  Residual-Control   Outer-Iter.   Inner-Iter.     Column Row Layer    Maximum-Head-Change  Column Row Layer    Maximum-Flux-Residual          L2-NORM 
          0                 1           2             5   15     1       0.1983844532E-02       5   15    1         0.2557519116E-01      0.3472915528E-01
          0                 2           1             5   15     1       0.3473858643E-03       5   15    1         0.4483158840E-02      0.5941747805E-02
          0                 3           1             4   15     1      -0.2247349554E-03       5   15    1         0.7845596140E-03      0.1086252020E-02
          0                 4           1             4   15     1      -0.1748960484E-03       4   15    1        -0.2815433321E-03      0.3375717532E-03
          0                 5           1             4   15     1      -0.1351404131E-03       4   15    1        -0.2185157953E-03      0.2226067700E-03
          0                 6           1             4   15     1      -0.1042623900E-03       4   15    1        -0.1687479397E-03      0.1698005919E-03
          0                 7           1             4   15     1      -0.8041330158E-04       4   15    1        -0.1301749354E-03      0.1308328931E-03

    ------------------------------------------------
       NWT REQUIRED            7 OUTER ITERATIONS 
       AND A TOTAL OF          8 INNER ITERATIONS.
    ------------------------------------------------

 NO OUTPUT CONTROL FOR STRESS PERIOD    2   TIME STEP    9
 
 SOLVING FOR HEAD 
                                                   Max.-Head-Change                         Max.-Flux-Residual
  Residual-Control   Outer-Iter.   Inner-Iter.     Column Row Layer    Maximum-Head-Change  Column Row Layer    Maximum-Flux-Residual          L2-NORM 
          0                 1           2             5   15     1       0.2163773235E-02       5   15    1         0.2537488209E-01      0.3443837391E-01
          0                 2           1             5   15     1       0.3785534552E-03       5   15    1         0.4443643840E-02      0.5886598142E-02
          0                 3           1             4   15     1      -0.2430717868E-03       5   15    1         0.7769897305E-03      0.1077148143E-02
          0                 4           1             4   15     1      -0.1851465504E-03       4   15    1        -0.2762099454E-03      0.3324906947E-03
          0                 5           1             4   15     1      -0.1399421447E-03       4   15    1        -0.2097735257E-03      0.2141522984E-03
          0                 6           1             4   15     1      -0.1055980560E-03       4   15    1        -0.1584561716E-03      0.1596600644E-03
          0                 7           1             4   15     1      -0.7965357979E-04       4   15    1        -0.1195519866E-03      0.1202887097E-03

    ------------------------------------------------
       NWT REQUIRED            7 OUTER ITERATIONS 
       AND A TOTAL OF          8 INNER ITERATIONS.
    ------------------------------------------------

 OUTPUT CONTROL FOR STRESS PERIOD    2   TIME STEP   10
    PRINT BUDGET
    SAVE BUDGET

            WELLS   PERIOD    2   STEP  10
 WELL      1   LAYER   1   ROW     6   COL     4   RATE    -2.00000    
 WELL      2   LAYER   1   ROW     6   COL     5   RATE    -2.00000    
 WELL      3   LAYER   1   ROW     7   COL     4   RATE    -2.00000    
 WELL      4   LAYER   1   ROW     7   COL     5   RATE    -2.00000    
 WELL      5   LAYER   1   ROW     8   COL     4   RATE    -2.00000    
 WELL      6   LAYER   1   ROW     8   COL     5   RATE    -2.00000    
 WELL      7   LAYER   1   ROW     9   COL     4   RATE    -2.00000    
 WELL      8   LAYER   1   ROW     9   COL     5   RATE    -2.00000    
 WELL      9   LAYER   1   ROW    10   COL     4   RATE    -2.00000    
 WELL     10   LAYER   1   ROW    10   COL     5   RATE    -2.00000    

  HEAD DEP BOUNDS   PERIOD    2   STEP    10
 BOUNDARY      1   LAYER   1   ROW    13   COL     1   RATE   -0.280511    
 BOUNDARY      2   LAYER   1   ROW    14   COL     9   RATE    0.207726    



 STREAM LISTING     PERIOD      2   STEP       10

 LAYER ROW COL. STREAM  RCH.  FLOW INTO     FLOW TO   FLOW OUT OF   OVRLND.     DIRECT     STREAM       STREAM     STREAM     STREAM   STREAMBED  STREAMBED
                SEG.NO.  NO.  STRM. RCH.    AQUIFER    STRM. RCH.    RUNOFF     PRECIP       ET          HEAD       DEPTH      WIDTH   CONDCTNC.   GRADIENT

   1    1    1     1     1    2.5000E+01  1.1998E+00   2.3800E+01  0.000E+00  0.000E+00  0.000E+00  1.09422E+03  1.171E+00  1.294E+01  5.824E-01  6.867E-01
   1    2    2     1     2    2.3800E+01  2.7459E+00   2.1054E+01  0.000E+00  0.000E+00  0.000E+00  1.08920E+03  1.140E+00  1.253E+01  8.774E-01  1.043E+00
   1    3    3     1     3    2.1054E+01  2.9175E+00   1.8137E+01  0.000E+00  0.000E+00  0.000E+00  1.08351E+03  1.094E+00  1.188E+01  7.127E-01  1.365E+00
   1    3    4     1     4    1.8137E+01  2.4788E+00   1.5658E+01  0.000E+00  0.000E+00  0.000E+00  1.07846E+03  1.048E+00  1.103E+01  6.124E-01  1.349E+00
   1    4    5     2     1    5.6579E+00  2.6687E+00   2.9893E+00  0.000E+00  0.000E+00  0.000E+00  1.07236E+03  4.214E-01  1.200E+01  7.800E-01  1.140E+00
   1    5    6     2     2    2.9893E+00  1.9596E+00   1.0296E+00  0.000E+00  0.000E+00  0.000E+00  1.06678E+03  2.661E-01  1.200E+01  6.000E-01  1.089E+00
   1    6    6     2     3    1.0296E+00  1.0296E+00   0.0000E+00  0.000E+00  0.000E+00  0.000E+00  1.06183E+03  4.008E-02  1.200E+01  6.000E-01  1.013E+00
   1    7    6     2     4    0.0000E+00  0.0000E+00   0.0000E+00  0.000E+00  0.000E+00  0.000E+00  1.05708E+03  0.000E+00  1.200E+01  6.000E-01  1.000E+00
   1    8    6     2     5    0.0000E+00  0.0000E+00   0.0000E+00  0.000E+00  0.000E+00  0.000E+00  1.05236E+03  0.000E+00  1.200E+01  6.000E-01  1.000E+00
   1    3    5     3     1    1.0000E+01  2.0728E+00   7.9272E+00  0.000E+00  0.000E+00  0.000E+00  1.07555E+03  1.909E+00  9.636E+00  7.227E-01  1.434E+00
   1    3    6     3     2    7.9272E+00  1.8472E+00   6.0800E+00  0.000E+00  0.000E+00  0.000E+00  1.07264E+03  1.727E+00  8.909E+00  6.682E-01  1.382E+00
   1    3    7     3     3    6.0800E+00  1.3281E+00   4.7519E+00  0.000E+00  0.000E+00  0.000E+00  1.06987E+03  1.555E+00  8.218E+00  5.547E-01  1.197E+00
   1    4    8     3     4    4.7519E+00  1.6835E+00   3.0684E+00  0.000E+00  0.000E+00  0.000E+00  1.06682E+03  1.364E+00  7.455E+00  6.709E-01  1.255E+00
   1    5    8     3     5    3.0684E+00  1.5790E+00   1.4894E+00  0.000E+00  0.000E+00  0.000E+00  1.06362E+03  1.164E+00  6.655E+00  4.991E-01  1.582E+00
   1    6    8     3     6    1.4894E+00  5.5980E-01   9.2964E-01  0.000E+00  0.000E+00  0.000E+00  1.06158E+03  1.036E+00  6.145E+00  1.844E-01  1.518E+00
   1    5   10     4     1    1.0000E+01  9.0525E-01   9.0947E+00  0.000E+00  0.000E+00  0.000E+00  1.07835E+03  6.210E-01  1.000E+01  2.500E-01  1.207E+00
   1    5    9     4     2    9.0947E+00  1.7835E+00   7.3113E+00  0.000E+00  0.000E+00  0.000E+00  1.07148E+03  5.670E-01  1.000E+01  5.000E-01  1.189E+00
   1    6    8     4     3    7.3113E+00  1.2257E+00   6.0855E+00  0.000E+00  0.000E+00  0.000E+00  1.06368E+03  5.021E-01  1.000E+01  3.500E-01  1.167E+00
   1    6    8     5     1    7.0152E+00  3.9219E-01   6.6230E+00  0.000E+00  0.000E+00  0.000E+00  1.05859E+03  5.874E-01  1.202E+01  4.809E-01  2.718E-01
   1    7    7     5     2    6.6230E+00  1.3115E+00   5.3115E+00  0.000E+00  0.000E+00  0.000E+00  1.05406E+03  5.606E-01  1.110E+01  5.549E-01  7.878E-01
   1    8    7     5     3    5.3115E+00  9.5885E-01   4.3526E+00  0.000E+00  0.000E+00  0.000E+00  1.04977E+03  5.207E-01  9.778E+00  3.422E-01  9.339E-01
   1    8    6     5     4    4.3526E+00  7.5788E-01   3.5948E+00  0.000E+00  0.000E+00  0.000E+00  1.04674E+03  4.862E-01  8.696E+00  2.174E-01  1.162E+00
   1    9    6     6     1    3.5948E+00  1.9884E+00   1.6063E+00  0.000E+00  0.000E+00  0.000E+00  1.04304E+03  3.141E-01  1.200E+01  6.000E-01  1.105E+00
   1   10    7     6     2    1.6063E+00  1.3388E+00   2.6754E-01  0.000E+00  0.000E+00  0.000E+00  1.03835E+03  1.702E-01  1.200E+01  6.000E-01  7.438E-01
   1   11    7     6     3    2.6754E-01  2.6754E-01   0.0000E+00  0.000E+00  0.000E+00  0.000E+00  1.03365E+03  1.806E-02  1.200E+01  6.000E-01  9.994E-01
   1   12    7     6     4    0.0000E+00  0.0000E+00   0.0000E+00  0.000E+00  0.000E+00  0.000E+00  1.02909E+03  0.000E+00  1.200E+01  6.000E-01  7.126E-01
   1   13    7     6     5    0.0000E+00 -7.9897E-01   7.9897E-01  0.000E+00  0.000E+00  0.000E+00  1.02601E+03  1.021E-01  1.200E+01  2.400E-01 -1.110E+00
   1   14    9     7     1    1.5000E+02  1.8648E+00   1.4814E+02  0.000E+00  0.000E+00  0.000E+00  1.03987E+03  2.286E+00  5.529E+01  5.592E+00  1.112E-01
   1   13    8     7     2    1.4814E+02  1.9102E+00   1.4622E+02  0.000E+00  0.000E+00  0.000E+00  1.03478E+03  2.276E+00  5.524E+01  6.146E+00  1.036E-01
   1   13    7     7     3    1.4622E+02  1.9268E+00   1.4430E+02  0.000E+00  0.000E+00  0.000E+00  1.02969E+03  2.266E+00  5.520E+01  5.582E+00  1.151E-01
   1   13    6     8     1    1.4510E+02  6.3782E-01   1.4446E+02  0.000E+00  0.000E+00  0.000E+00  1.02465E+03  2.780E+00  4.031E+01  4.107E+00  5.176E-02
   1   13    5     8     2    1.4446E+02 -7.1275E-02   1.4453E+02  0.000E+00  0.000E+00  0.000E+00  1.01840E+03  2.778E+00  4.028E+01  4.104E+00 -5.789E-03
   1   13    4     8     3    1.4453E+02 -8.9976E-01   1.4543E+02  0.000E+00  0.000E+00  0.000E+00  1.01216E+03  2.781E+00  4.033E+01  4.109E+00 -7.298E-02
   1   13    3     8     4    1.4543E+02 -1.5786E+00   1.4701E+02  0.000E+00  0.000E+00  0.000E+00  1.00591E+03  2.790E+00  4.046E+01  4.123E+00 -1.276E-01
   1   13    2     8     5    1.4701E+02 -1.7392E+00   1.4875E+02  0.000E+00  0.000E+00  0.000E+00  9.99677E+02  2.802E+00  4.063E+01  4.140E+00 -1.400E-01
   1   13    1     8     6    1.4875E+02 -1.7283E+00   1.5048E+02  0.000E+00  0.000E+00  0.000E+00  9.94689E+02  2.814E+00  4.080E+01  2.495E+00 -2.309E-01



 UBDSV3 SAVING "           GW ET" ON UNIT  61 AT TIME STEP 10, STRESS PERIOD   2
 UBDSV3 SAVING "    UZF RECHARGE" ON UNIT  61 AT TIME STEP 10, STRESS PERIOD   2
 UBDSV3 SAVING " SURFACE LEAKAGE" ON UNIT  61 AT TIME STEP 10, STRESS PERIOD   2
 UBDSV3 SAVING "       HORT+DUNN" ON UNIT  61 AT TIME STEP 10, STRESS PERIOD   2
 UBDSV3 SAVING "  STORAGE CHANGE" ON UNIT  61 AT TIME STEP 10, STRESS PERIOD   2


UNSATURATED ZONE PACKAGE VOLUMETRIC BUDGET FOR  TIME STEP    10 STRESS PERIOD    2
  ------------------------------------------------------------------------------



     CUMULATIVE VOLUMES      L**3       RATES FOR THIS TIME STEP      L**3/T
     ------------------                 ------------------------

           IN:                                      IN:
           ---                                      ---
        INFILTRATION =   111648524.4121          INFILTRATION =          67.8000

          OUT:                                     OUT:
          ----                                     ----
              UZF ET =       0.0000E+00                UZF ET =       0.0000E+00
        UZF RECHARGE =    33430639.9204          UZF RECHARGE =           8.4777

            IN - OUT =    78217884.4917              IN - OUT =          59.3223

          STORAGE:                                 STORAGE:
          --------                                 --------
      STORAGE CHANGE =    78217872.8824        STORAGE CHANGE =          59.3223

 PERCENT DISCREPANCY IS DIFFERENCE BETWEEN IN-OUT MINUS CHANGE IN STORAGE
 DIVIDED BY THE AVERAGE OF IN AND OUT TIMES 100

 PERCENT DISCREPANCY =           0.00     PERCENT DISCREPANCY =           0.00






1
  VOLUMETRIC BUDGET FOR ENTIRE MODEL AT END OF TIME STEP   10, STRESS PERIOD   2
  ------------------------------------------------------------------------------

     CUMULATIVE VOLUMES      L**3       RATES FOR THIS TIME STEP      L**3/T
     ------------------                 ------------------------

           IN:                                      IN:
           ---                                      ---
             STORAGE     =       80392.5156               STORAGE     =       4.8905E-02
       CONSTANT HEAD     =           0.0000         CONSTANT HEAD     =           0.0000
               WELLS     =           0.0000                 WELLS     =           0.0000
     HEAD DEP BOUNDS     =      819732.1875       HEAD DEP BOUNDS     =           0.2077
      STREAM LEAKAGE     =   163132528.0000        STREAM LEAKAGE     =          41.3397
        UZF RECHARGE     =    33430654.0000          UZF RECHARGE     =           8.4777
               GW ET     =           0.0000                 GW ET     =           0.0000
     SURFACE LEAKAGE     =           0.0000       SURFACE LEAKAGE     =           0.0000

                TOTAL IN =   197463312.0000                  TOTAL IN =          50.0740

          OUT:                                     OUT:
          ----                                     ----
             STORAGE     =       68687.1484               STORAGE     =       5.3916E-02
       CONSTANT HEAD     =           0.0000         CONSTANT HEAD     =           0.0000
               WELLS     =    78924664.0000                 WELLS     =          20.0000
     HEAD DEP BOUNDS     =     1106964.6250       HEAD DEP BOUNDS     =           0.2805
      STREAM LEAKAGE     =    26901466.0000        STREAM LEAKAGE     =           6.8162
        UZF RECHARGE     =           0.0000          UZF RECHARGE     =           0.0000
               GW ET     =    90461736.0000                 GW ET     =          22.9235
     SURFACE LEAKAGE     =           0.0000       SURFACE LEAKAGE     =           0.0000

               TOTAL OUT =   197463520.0000                 TOTAL OUT =          50.0741

                IN - OUT =        -208.0000                  IN - OUT =      -1.0681E-04

     PERCENT DISCREPANCY =          -0.00         PERCENT DISCREPANCY =          -0.00






         TIME SUMMARY AT END OF TIME STEP   10 IN STRESS PERIOD    2
                    SECONDS     MINUTES      HOURS       DAYS        YEARS
                    -----------------------------------------------------------
   TIME STEP LENGTH 1.95033E+05  3250.6      54.176      2.2573     6.18023E-03
 STRESS PERIOD TIME 1.31823E+06  21971.      366.18      15.257     4.17723E-02
         TOTAL TIME 3.94623E+06  65771.      1096.2      45.674     0.12505    
1
 
 SOLVING FOR HEAD 
                                                   Max.-Head-Change                         Max.-Flux-Residual
  Residual-Control   Outer-Iter.   Inner-Iter.     Column Row Layer    Maximum-Head-Change  Column Row Layer    Maximum-Flux-Residual          L2-NORM 
          0                 1           2             5   15     1       0.2358159642E-02       5   15    1         0.2515539078E-01      0.3412043362E-01
          0                 2           1             5   15     1       0.4121573528E-03       5   15    1         0.4401091121E-02      0.5827246834E-02
          0                 3           1             4   15     1      -0.2639306824E-03       5   15    1         0.7687751835E-03      0.1068026539E-02
          0                 4           1             4   15     1      -0.1964506351E-03       4   15    1        -0.2719700581E-03      0.3283186104E-03
          0                 5           1             4   15     1      -0.1450222487E-03       4   15    1        -0.2017991070E-03      0.2064578072E-03
          0                 6           1             4   15     1      -0.1068630386E-03       4   15    1        -0.1488678034E-03      0.1502108930E-03
          0                 7           1             4   15     1      -0.7871291240E-04       4   15    1        -0.1096799834E-03      0.1105099065E-03

    ------------------------------------------------
       NWT REQUIRED            7 OUTER ITERATIONS 
       AND A TOTAL OF          8 INNER ITERATIONS.
    ------------------------------------------------

 NO OUTPUT CONTROL FOR STRESS PERIOD    2   TIME STEP   11
 
 SOLVING FOR HEAD 
                                                   Max.-Head-Change                         Max.-Flux-Residual
  Residual-Control   Outer-Iter.   Inner-Iter.     Column Row Layer    Maximum-Head-Change  Column Row Layer    Maximum-Flux-Residual          L2-NORM 
          0                 1           2             5    3     1       0.5556060206E-02       5    3    1         0.5852218800E-01      0.6756930916E-01
          0                 2           1             5    3     1       0.8509218690E-03       5    3    1         0.8962553174E-02      0.1092482384E-01
          0                 3           1             4   15     1      -0.2859486596E-03       5    3    1         0.1372661694E-02      0.1832843059E-02
          0                 4           1             4   15     1      -0.2076558545E-03       4   15    1        -0.2671422833E-03      0.3966304946E-03
          0                 5           1             4   15     1      -0.1494777285E-03       4   15    1        -0.1933450536E-03      0.2014657896E-03
          0                 6           1             4   15     1      -0.1073875015E-03       4   15    1        -0.1390716282E-03      0.1406872441E-03
          0                 7           1             4   15     1      -0.7711496845E-04       4   15    1        -0.9989466457E-04      0.1008239614E-03

    ------------------------------------------------
       NWT REQUIRED            7 OUTER ITERATIONS 
       AND A TOTAL OF          8 INNER ITERATIONS.
    ------------------------------------------------

 NO OUTPUT CONTROL FOR STRESS PERIOD    2   TIME STEP   12
 
 SOLVING FOR HEAD 
                                                   Max.-Head-Change                         Max.-Flux-Residual
  Residual-Control   Outer-Iter.   Inner-Iter.     Column Row Layer    Maximum-Head-Change  Column Row Layer    Maximum-Flux-Residual          L2-NORM 
          0                 1           2             5    3     1       0.1443036257E+00       5    3    1         0.1393515030E+01      0.1393917727E+01
          0                 2           2             5    3     1       0.5118078970E-01       5    3    1         0.4942595895E+00      0.4983269681E+00
          0                 3           2             5    3     1       0.1815283701E-01       5    3    1         0.1753051610E+00      0.1772576679E+00
          0                 4           2             5    3     1       0.6438498248E-02       5    3    1         0.6217796528E-01      0.6290472419E-01
          0                 5           1             5    3     1       0.2283628988E-02       5    3    1         0.2205351483E-01      0.2231414193E-01
          0                 6           1             5    3     1       0.8099661056E-03       5    3    1         0.7822026732E-02      0.7915335414E-02
          0                 7           1             5    3     1       0.2872819008E-03       5    3    1         0.2774346877E-02      0.2808582857E-02
          0                 8           1             5    3     1       0.1018942634E-03       5    3    1         0.9840161918E-03      0.9977138831E-03
          0                 9           1             4   15     1      -0.3652134110E-04       5    3    1         0.3490147124E-03      0.3559288485E-03

    ------------------------------------------------
       NWT REQUIRED            9 OUTER ITERATIONS 
       AND A TOTAL OF         13 INNER ITERATIONS.
    ------------------------------------------------

 NO OUTPUT CONTROL FOR STRESS PERIOD    2   TIME STEP   13
 
 SOLVING FOR HEAD 
                                                   Max.-Head-Change                         Max.-Flux-Residual
  Residual-Control   Outer-Iter.   Inner-Iter.     Column Row Layer    Maximum-Head-Change  Column Row Layer    Maximum-Flux-Residual          L2-NORM 
          0                 1           2             6    3     1       0.1462154738E+00       6    3    1         0.1287510972E+01      0.1765310295E+01
          0                 2           2             6    3     1       0.5164395337E-01       6    3    1         0.4548788418E+00      0.6279426928E+00
          0                 3           2             6    3     1       0.1824117277E-01       6    3    1         0.1606605297E+00      0.2221479469E+00
          0                 4           2             6    3     1       0.6442953997E-02       6    3    1         0.5674863980E-01      0.7837295385E-01
          0                 5           2             6    3     1       0.2275692231E-02       6    3    1         0.2004409141E-01      0.2763510306E-01
          0                 6           1             6    3     1       0.8037800964E-03       6    3    1         0.7079704092E-02      0.9744306351E-02
          0                 7           1             6    3     1       0.2838937876E-03       6    3    1         0.2500562614E-02      0.3436361124E-02
          0                 8           1             6    3     1       0.1002696081E-03       6    3    1         0.8831924742E-03      0.1212439568E-02
          0                 9           1             6    3     1       0.3541420906E-04       6    3    1         0.3119375385E-03      0.4287632198E-03

    ------------------------------------------------
       NWT REQUIRED            9 OUTER ITERATIONS 
       AND A TOTAL OF         14 INNER ITERATIONS.
    ------------------------------------------------

 NO OUTPUT CONTROL FOR STRESS PERIOD    2   TIME STEP   14
 
 SOLVING FOR HEAD 
                                                   Max.-Head-Change                         Max.-Flux-Residual
  Residual-Control   Outer-Iter.   Inner-Iter.     Column Row Layer    Maximum-Head-Change  Column Row Layer    Maximum-Flux-Residual          L2-NORM 
          0                 1           2             6    3     1       0.1480465733E+00       6    3    1         0.1195553276E+01      0.1665326571E+01
          0                 2           2             6    3     1       0.5165108614E-01       6    3    1         0.4176594409E+00      0.5639228523E+00
          0                 3           2             6    3     1       0.1801621939E-01       6    3    1         0.1456672132E+00      0.1945236828E+00
          0                 4           2             6    3     1       0.6283650014E-02       6    3    1         0.5081207684E-01      0.6754431671E-01
          0                 5           2             6    3     1       0.2191517380E-02       6    3    1         0.1772155612E-01      0.2350130628E-01
          0                 6           1             6    3     1       0.7643098771E-03       6    3    1         0.6180665283E-02      0.8183469573E-02
          0                 7           1             6    3     1       0.2665558022E-03       6    3    1         0.2155547488E-02      0.2850431294E-02
          0                 8           1             6    3     1       0.9296121456E-04       6    3    1         0.7517532733E-03      0.9934618859E-03

    ------------------------------------------------
       NWT REQUIRED            8 OUTER ITERATIONS 
       AND A TOTAL OF         13 INNER ITERATIONS.
    ------------------------------------------------

 OUTPUT CONTROL FOR STRESS PERIOD    2   TIME STEP   15
    PRINT BUDGET
    PRINT HEAD FOR ALL LAYERS
    SAVE HEAD FOR ALL LAYERS
    SAVE BUDGET

            WELLS   PERIOD    2   STEP  15
 WELL      1   LAYER   1   ROW     6   COL     4   RATE    -2.00000    
 WELL      2   LAYER   1   ROW     6   COL     5   RATE    -2.00000    
 WELL      3   LAYER   1   ROW     7   COL     4   RATE    -2.00000    
 WELL      4   LAYER   1   ROW     7   COL     5   RATE    -2.00000    
 WELL      5   LAYER   1   ROW     8   COL     4   RATE    -2.00000    
 WELL      6   LAYER   1   ROW     8   COL     5   RATE    -2.00000    
 WELL      7   LAYER   1   ROW     9   COL     4   RATE    -2.00000    
 WELL      8   LAYER   1   ROW     9   COL     5   RATE    -2.00000    
 WELL      9   LAYER   1   ROW    10   COL     4   RATE    -2.00000    
 WELL     10   LAYER   1   ROW    10   COL     5   RATE    -2.00000    

  HEAD DEP BOUNDS   PERIOD    2   STEP    15
 BOUNDARY      1   LAYER   1   ROW    13   COL     1   RATE   -0.280523    
 BOUNDARY      2   LAYER   1   ROW    14   COL     9   RATE    0.207726    



 STREAM LISTING     PERIOD      2   STEP       15

 LAYER ROW COL. STREAM  RCH.  FLOW INTO     FLOW TO   FLOW OUT OF   OVRLND.     DIRECT     STREAM       STREAM     STREAM     STREAM   STREAMBED  STREAMBED
                SEG.NO.  NO.  STRM. RCH.    AQUIFER    STRM. RCH.    RUNOFF     PRECIP       ET          HEAD       DEPTH      WIDTH   CONDCTNC.   GRADIENT

   1    1    1     1     1    2.5000E+01  1.1998E+00   2.3800E+01  0.000E+00  0.000E+00  0.000E+00  1.09422E+03  1.171E+00  1.294E+01  5.824E-01  6.867E-01
   1    2    2     1     2    2.3800E+01  2.7458E+00   2.1054E+01  0.000E+00  0.000E+00  0.000E+00  1.08920E+03  1.140E+00  1.253E+01  8.774E-01  1.043E+00
   1    3    3     1     3    2.1054E+01  2.9175E+00   1.8137E+01  0.000E+00  0.000E+00  0.000E+00  1.08351E+03  1.094E+00  1.188E+01  7.127E-01  1.365E+00
   1    3    4     1     4    1.8137E+01  2.4789E+00   1.5658E+01  0.000E+00  0.000E+00  0.000E+00  1.07846E+03  1.048E+00  1.103E+01  6.124E-01  1.349E+00
   1    4    5     2     1    5.6581E+00  2.6687E+00   2.9894E+00  0.000E+00  0.000E+00  0.000E+00  1.07236E+03  4.214E-01  1.200E+01  7.800E-01  1.140E+00
   1    5    6     2     2    2.9894E+00  1.9596E+00   1.0298E+00  0.000E+00  0.000E+00  0.000E+00  1.06678E+03  2.661E-01  1.200E+01  6.000E-01  1.089E+00
   1    6    6     2     3    1.0298E+00  1.0298E+00   0.0000E+00  0.000E+00  0.000E+00  0.000E+00  1.06183E+03  4.008E-02  1.200E+01  6.000E-01  1.013E+00
   1    7    6     2     4    0.0000E+00  0.0000E+00   0.0000E+00  0.000E+00  0.000E+00  0.000E+00  1.05708E+03  0.000E+00  1.200E+01  6.000E-01  1.000E+00
   1    8    6     2     5    0.0000E+00  0.0000E+00   0.0000E+00  0.000E+00  0.000E+00  0.000E+00  1.05236E+03  0.000E+00  1.200E+01  6.000E-01  1.000E+00
   1    3    5     3     1    1.0000E+01  1.6250E+00   8.3750E+00  0.000E+00  0.000E+00  0.000E+00  1.07555E+03  1.909E+00  9.636E+00  7.227E-01  1.124E+00
   1    3    6     3     2    8.3750E+00  1.5437E+00   6.8313E+00  0.000E+00  0.000E+00  0.000E+00  1.07264E+03  1.727E+00  8.909E+00  6.682E-01  1.155E+00
   1    3    7     3     3    6.8313E+00  1.3117E+00   5.5196E+00  0.000E+00  0.000E+00  0.000E+00  1.06987E+03  1.555E+00  8.218E+00  5.547E-01  1.182E+00
   1    4    8     3     4    5.5196E+00  1.6833E+00   3.8363E+00  0.000E+00  0.000E+00  0.000E+00  1.06682E+03  1.364E+00  7.455E+00  6.709E-01  1.254E+00
   1    5    8     3     5    3.8363E+00  1.5790E+00   2.2573E+00  0.000E+00  0.000E+00  0.000E+00  1.06362E+03  1.164E+00  6.655E+00  4.991E-01  1.582E+00
   1    6    8     3     6    2.2573E+00  5.5980E-01   1.6975E+00  0.000E+00  0.000E+00  0.000E+00  1.06158E+03  1.036E+00  6.145E+00  1.844E-01  1.518E+00
   1    5   10     4     1    1.0000E+01  9.0525E-01   9.0947E+00  0.000E+00  0.000E+00  0.000E+00  1.07835E+03  6.210E-01  1.000E+01  2.500E-01  1.207E+00
   1    5    9     4     2    9.0947E+00  1.7835E+00   7.3113E+00  0.000E+00  0.000E+00  0.000E+00  1.07148E+03  5.670E-01  1.000E+01  5.000E-01  1.189E+00
   1    6    8     4     3    7.3113E+00  1.2257E+00   6.0855E+00  0.000E+00  0.000E+00  0.000E+00  1.06368E+03  5.021E-01  1.000E+01  3.500E-01  1.167E+00
   1    6    8     5     1    7.7831E+00  4.2655E-01   7.3565E+00  0.000E+00  0.000E+00  0.000E+00  1.05861E+03  6.093E-01  1.280E+01  5.120E-01  2.777E-01
   1    7    7     5     2    7.3565E+00  1.4060E+00   5.9505E+00  0.000E+00  0.000E+00  0.000E+00  1.05408E+03  5.824E-01  1.185E+01  5.924E-01  7.912E-01
   1    8    7     5     3    5.9505E+00  1.0334E+00   4.9172E+00  0.000E+00  0.000E+00  0.000E+00  1.04979E+03  5.425E-01  1.049E+01  3.672E-01  9.380E-01
   1    8    6     5     4    4.9172E+00  8.2237E-01   4.0948E+00  0.000E+00  0.000E+00  0.000E+00  1.04676E+03  5.081E-01  9.377E+00  2.344E-01  1.169E+00
   1    9    6     6     1    4.0948E+00  2.0090E+00   2.0858E+00  0.000E+00  0.000E+00  0.000E+00  1.04308E+03  3.483E-01  1.200E+01  6.000E-01  1.116E+00
   1   10    7     6     2    2.0858E+00  1.3646E+00   7.2124E-01  0.000E+00  0.000E+00  0.000E+00  1.03840E+03  2.169E-01  1.200E+01  6.000E-01  7.581E-01
   1   11    7     6     3    7.2124E-01  7.2124E-01   0.0000E+00  0.000E+00  0.000E+00  0.000E+00  1.03367E+03  3.273E-02  1.200E+01  6.000E-01  9.862E-01
   1   12    7     6     4    0.0000E+00  0.0000E+00   0.0000E+00  0.000E+00  0.000E+00  0.000E+00  1.02909E+03  0.000E+00  1.200E+01  6.000E-01  7.124E-01
   1   13    7     6     5    0.0000E+00 -7.9897E-01   7.9897E-01  0.000E+00  0.000E+00  0.000E+00  1.02601E+03  1.021E-01  1.200E+01  2.400E-01 -1.110E+00
   1   14    9     7     1    1.5000E+02  1.8648E+00   1.4814E+02  0.000E+00  0.000E+00  0.000E+00  1.03987E+03  2.286E+00  5.529E+01  5.592E+00  1.112E-01
   1   13    8     7     2    1.4814E+02  1.9102E+00   1.4623E+02  0.000E+00  0.000E+00  0.000E+00  1.03478E+03  2.276E+00  5.524E+01  6.146E+00  1.036E-01
   1   13    7     7     3    1.4623E+02  1.9267E+00   1.4430E+02  0.000E+00  0.000E+00  0.000E+00  1.02969E+03  2.266E+00  5.520E+01  5.582E+00  1.150E-01
   1   13    6     8     1    1.4510E+02  6.3697E-01   1.4446E+02  0.000E+00  0.000E+00  0.000E+00  1.02465E+03  2.780E+00  4.031E+01  4.107E+00  5.169E-02
   1   13    5     8     2    1.4446E+02 -2.0347E-01   1.4466E+02  0.000E+00  0.000E+00  0.000E+00  1.01840E+03  2.778E+00  4.028E+01  4.105E+00 -1.652E-02
   1   13    4     8     3    1.4466E+02 -1.0093E+00   1.4567E+02  0.000E+00  0.000E+00  0.000E+00  1.01216E+03  2.782E+00  4.035E+01  4.111E+00 -8.183E-02
   1   13    3     8     4    1.4567E+02 -1.6532E+00   1.4733E+02  0.000E+00  0.000E+00  0.000E+00  1.00592E+03  2.792E+00  4.048E+01  4.125E+00 -1.336E-01
   1   13    2     8     5    1.4733E+02 -1.7341E+00   1.4906E+02  0.000E+00  0.000E+00  0.000E+00  9.99679E+02  2.804E+00  4.066E+01  4.143E+00 -1.395E-01
   1   13    1     8     6    1.4906E+02 -1.7250E+00   1.5079E+02  0.000E+00  0.000E+00  0.000E+00  9.94691E+02  2.816E+00  4.084E+01  2.497E+00 -2.303E-01



 UBDSV3 SAVING "           GW ET" ON UNIT  61 AT TIME STEP 15, STRESS PERIOD   2
 UBDSV3 SAVING "    UZF RECHARGE" ON UNIT  61 AT TIME STEP 15, STRESS PERIOD   2
 UBDSV3 SAVING " SURFACE LEAKAGE" ON UNIT  61 AT TIME STEP 15, STRESS PERIOD   2
 UBDSV3 SAVING "       HORT+DUNN" ON UNIT  61 AT TIME STEP 15, STRESS PERIOD   2
 UBDSV3 SAVING "  STORAGE CHANGE" ON UNIT  61 AT TIME STEP 15, STRESS PERIOD   2


UNSATURATED ZONE PACKAGE VOLUMETRIC BUDGET FOR  TIME STEP    15 STRESS PERIOD    2
  ------------------------------------------------------------------------------



     CUMULATIVE VOLUMES      L**3       RATES FOR THIS TIME STEP      L**3/T
     ------------------                 ------------------------

           IN:                                      IN:
           ---                                      ---
        INFILTRATION =   200450682.6777          INFILTRATION =          67.8000

          OUT:                                     OUT:
          ----                                     ----
              UZF ET =       0.0000E+00                UZF ET =       0.0000E+00
        UZF RECHARGE =    48472999.2085          UZF RECHARGE =          14.4532

            IN - OUT =   151977683.4692              IN - OUT =          53.3468

          STORAGE:                                 STORAGE:
          --------                                 --------
      STORAGE CHANGE =   151956826.1953        STORAGE CHANGE =          53.3062

 PERCENT DISCREPANCY IS DIFFERENCE BETWEEN IN-OUT MINUS CHANGE IN STORAGE
 DIVIDED BY THE AVERAGE OF IN AND OUT TIMES 100

 PERCENT DISCREPANCY =           0.00     PERCENT DISCREPANCY =           0.06






1
              HEAD IN LAYER   1 AT END OF TIME STEP  15 IN STRESS PERIOD    2
  ---------------------------------------------------------------------------

           1       2       3       4       5       6       7       8       9      10
 ...................................................................................
   1  1092.16 1087.66 6999.00 6999.00 6999.00 6999.00 6999.00 6999.00 6999.00 6999.00
   2  1087.73 1086.07 1078.12 6999.00 6999.00 1069.41 1069.25 1068.70 6999.00 6999.00
   3  6999.00 1074.75 1078.35 1073.65 1073.30 1070.33 1067.51 1065.85 6999.00 6999.00
   4  1065.89 1065.83 1064.68 1063.33 1065.83 1061.09 1059.52 1064.31 1062.05 6999.00
   5  1062.53 1059.26 1055.51 1053.09 1055.33 1060.23 1056.99 1060.28 1064.10 1065.48
   6  1058.73 1054.02 1049.36 1037.03 1040.42 1052.66 1053.77 1057.78 1057.57 1063.15
   7  1055.86 1048.97 1043.88 1028.24 1032.23 1045.32 1051.71 1052.48 1053.29 6999.00
   8  6999.00 1042.99 1039.15 1024.39 1028.02 1042.40 1046.98 1047.28 1049.77 6999.00
   9  6999.00 1037.07 1034.33 1020.58 1024.73 1039.54 1039.91 1041.41 1045.47 6999.00
  10  6999.00 1031.22 1029.82 1018.74 1021.47 1031.88 1036.12 1037.10 1041.76 1046.49
  11  6999.00 1023.70 1024.15 1023.67 1025.34 1028.51 1030.71 1033.67 1037.81 6999.00
  12  1006.68 1013.33 1015.67 1019.25 1021.97 1024.90 1026.95 1030.03 1035.16 6999.00
  13   995.38 1000.10 1006.32 1012.40 1018.45 1024.50 1029.34 1034.47 1035.78 6999.00
  14  6999.00 1012.45 1017.21 1021.75 1025.60 1028.77 1031.42 1034.74 1039.53 6999.00
  15  6999.00 6999.00 1026.37 1028.60 1031.13 1032.87 6999.00 6999.00 6999.00 6999.00
1
              HEAD IN LAYER   2 AT END OF TIME STEP  15 IN STRESS PERIOD    2
  ---------------------------------------------------------------------------

           1       2       3       4       5       6       7       8       9      10
 ...................................................................................
   1  1090.98 1087.07 6999.00 6999.00 6999.00 6999.00 6999.00 6999.00 6999.00 6999.00
   2  1087.48 1080.61 1075.17 6999.00 6999.00 1068.80 1068.70 1068.32 6999.00 6999.00
   3  6999.00 1072.51 1067.76 1063.94 1063.30 1063.87 1064.46 1065.26 6999.00 6999.00
   4  1065.18 1065.01 1061.94 1058.43 1057.00 1056.55 1057.95 1061.40 1061.62 6999.00
   5  1061.79 1058.44 1055.13 1052.94 1052.68 1053.07 1053.53 1055.50 1059.61 1063.67
   6  1058.04 1053.34 1049.44 1047.61 1047.90 1049.31 1050.75 1052.76 1056.62 1062.80
   7  1055.14 1048.35 1044.29 1042.67 1043.39 1045.19 1047.30 1049.95 1053.12 6999.00
   8  6999.00 1042.55 1039.49 1038.21 1039.10 1040.98 1043.01 1046.85 1049.45 6999.00
   9  6999.00 1036.56 1034.60 1033.91 1034.97 1036.85 1038.47 1041.16 1045.13 6999.00
  10  6999.00 1030.72 1030.00 1030.22 1031.46 1033.23 1034.60 1036.85 1041.31 1046.49
  11  6999.00 1023.76 1024.70 1026.99 1028.62 1030.38 1031.81 1033.72 1037.47 6999.00
  12  1006.95 1014.57 1019.49 1023.26 1025.89 1028.13 1029.76 1031.37 1035.08 6999.00
  13  1000.20 1007.62 1015.52 1020.73 1024.22 1027.11 1029.66 1032.44 1035.32 6999.00
  14  6999.00 1012.72 1017.50 1021.95 1025.56 1028.56 1031.04 1034.25 1036.85 6999.00
  15  6999.00 6999.00 1026.37 1028.60 1030.67 1032.40 6999.00 6999.00 6999.00 6999.00

 HEAD WILL BE SAVED ON UNIT   58 AT END OF TIME STEP   15, STRESS PERIOD    2
1
  VOLUMETRIC BUDGET FOR ENTIRE MODEL AT END OF TIME STEP   15, STRESS PERIOD   2
  ------------------------------------------------------------------------------

     CUMULATIVE VOLUMES      L**3       RATES FOR THIS TIME STEP      L**3/T
     ------------------                 ------------------------

           IN:                                      IN:
           ---                                      ---
             STORAGE     =      135198.3438               STORAGE     =       3.5212E-02
       CONSTANT HEAD     =           0.0000         CONSTANT HEAD     =           0.0000
               WELLS     =           0.0000                 WELLS     =           0.0000
     HEAD DEP BOUNDS     =     1091804.2500       HEAD DEP BOUNDS     =           0.2077
      STREAM LEAKAGE     =   217277680.0000        STREAM LEAKAGE     =          41.3387
        UZF RECHARGE     =    48473012.0000          UZF RECHARGE     =          14.4532
               GW ET     =           0.0000                 GW ET     =           0.0000
     SURFACE LEAKAGE     =           0.0000       SURFACE LEAKAGE     =           0.0000

                TOTAL IN =   266977696.0000                  TOTAL IN =          56.0348

          OUT:                                     OUT:
          ----                                     ----
             STORAGE     =     3893018.5000               STORAGE     =           5.6002
       CONSTANT HEAD     =           0.0000         CONSTANT HEAD     =           0.0000
               WELLS     =   105119992.0000                 WELLS     =          20.0000
     HEAD DEP BOUNDS     =     1474372.6250       HEAD DEP BOUNDS     =           0.2805
      STREAM LEAKAGE     =    35948404.0000        STREAM LEAKAGE     =           7.1241
        UZF RECHARGE     =           0.0000          UZF RECHARGE     =           0.0000
               GW ET     =   120541856.0000                 GW ET     =          23.0294
     SURFACE LEAKAGE     =           0.0000       SURFACE LEAKAGE     =           0.0000

               TOTAL OUT =   266977648.0000                 TOTAL OUT =          56.0342

                IN - OUT =          48.0000                  IN - OUT =       5.7602E-04

     PERCENT DISCREPANCY =           0.00         PERCENT DISCREPANCY =           0.00






         TIME SUMMARY AT END OF TIME STEP   15 IN STRESS PERIOD    2
                    SECONDS     MINUTES      HOURS       DAYS        YEARS
                    -----------------------------------------------------------
   TIME STEP LENGTH 3.14103E+05  5235.0      87.251      3.6354     9.95332E-03
 STRESS PERIOD TIME 2.62800E+06  43800.      730.00      30.417     8.32763E-02
         TOTAL TIME 5.25600E+06  87600.      1460.0      60.833     0.16655    
1
1
                            STRESS PERIOD NO.    3, LENGTH =   2628000.    
                            -----------------------------------------------

                              NUMBER OF TIME STEPS =    15

                               MULTIPLIER FOR DELT =     1.100

                            INITIAL TIME STEP SIZE =   82713.07    

 WELL NO.  LAYER   ROW   COL   STRESS RATE         
 --------------------------------------------------
      1      1      6      4      -1.000    
      2      1      6      5      -1.000    
      3      1      7      4      -1.000    
      4      1      7      5      -1.000    
      5      1      8      4      -1.000    
      6      1      8      5      -1.000    
      7      1      9      4      -1.000    
      8      1      9      5      -1.000    
      9      1     10      4      -1.000    
     10      1     10      5      -1.000    

     10 WELLS

 REUSING NON-PARAMETER GHB CELLS FROM LAST STRESS PERIOD

      2 GHB CELLS

 REUSING STREAM SEGMENT DATA FROM LAST STRESS PERIOD



            AREAL INFILTRATION RATE
 READING ON UNIT   19 WITH FORMAT: (10F4.0)            

            1           2           3           4           5           6           7           8           9          10
 ........................................................................................................................
   1   1.0000E-08  2.0000E-08   0.000       0.000       0.000       0.000       0.000       0.000       0.000       0.000    
   2   2.0000E-08  1.0000E-08  2.0000E-08   0.000       0.000      8.0000E-08  8.0000E-08  5.0000E-08   0.000       0.000    
   3    0.000      5.0000E-08  1.0000E-08  1.0000E-08  8.0000E-08  8.0000E-08  5.0000E-08  5.0000E-08   0.000       0.000    
   4   8.0000E-08  5.0000E-08  1.0000E-08  1.0000E-08  1.0000E-08  1.0000E-08  1.0000E-08  1.0000E-08  2.0000E-08   0.000    
   5   8.0000E-08  5.0000E-08  1.0000E-08  1.0000E-08  1.0000E-08  1.0000E-08  1.0000E-08  1.0000E-08  1.0000E-08  1.0000E-08
   6   8.0000E-08  5.0000E-08  5.0000E-08  2.0000E-08  2.0000E-08  1.0000E-08  1.0000E-08  1.0000E-08  1.0000E-08  5.0000E-08
   7   8.0000E-08  5.0000E-08  5.0000E-08  2.0000E-08  2.0000E-08  1.0000E-08  1.0000E-08  2.0000E-08  2.0000E-08   0.000    
   8    0.000      5.0000E-08  5.0000E-08  2.0000E-08  2.0000E-08  1.0000E-08  1.0000E-08  2.0000E-08  5.0000E-08   0.000    
   9    0.000      5.0000E-08  5.0000E-08  2.0000E-08  2.0000E-08  1.0000E-08  1.0000E-08  2.0000E-08  5.0000E-08   0.000    
  10    0.000      5.0000E-08  5.0000E-08  2.0000E-08  2.0000E-08  1.0000E-08  1.0000E-08  2.0000E-08  5.0000E-08  8.0000E-08
  11    0.000      1.0000E-08  1.0000E-08  1.0000E-08  1.0000E-08  1.0000E-08  1.0000E-08  2.0000E-08  5.0000E-08   0.000    
  12   1.0000E-08  1.0000E-08  1.0000E-08  1.0000E-08  1.0000E-08  1.0000E-08  1.0000E-08  1.0000E-08  2.0000E-08   0.000    
  13   1.0000E-08  1.0000E-08  2.0000E-08  2.0000E-08  2.0000E-08  2.0000E-08  2.0000E-08  1.0000E-08  1.0000E-08   0.000    
  14    0.000      2.0000E-08  5.0000E-08  5.0000E-08  5.0000E-08  5.0000E-08  5.0000E-08  2.0000E-08  1.0000E-08   0.000    
  15    0.000       0.000      8.0000E-08  8.0000E-08  8.0000E-08  8.0000E-08   0.000       0.000       0.000       0.000    

USING ET RATE FROM PREVIOUS STRESS PERIOD. CURRENT PERIOD IS:       3

 USING ET EXTINCTION DEPTH FROM PREVIOUS STRESS PERIOD. CURRENT PERIOD IS:       3

 USING EXTINCTION WATER CONTENT FROM PREVIOUS STRESS PERIOD. CURRENT PERIOD IS:       3
 
 SOLVING FOR HEAD 
                                                   Max.-Head-Change                         Max.-Flux-Residual
  Residual-Control   Outer-Iter.   Inner-Iter.     Column Row Layer    Maximum-Head-Change  Column Row Layer    Maximum-Flux-Residual          L2-NORM 
          0                 1           2             6    3     1       0.3481819245E-01       4    6    1         0.1001520244E+01      0.3571460866E+01
          0                 2           2             6    3     1       0.1345838219E-01       6    3    1         0.3812817654E+00      0.6381440120E+00
          0                 3           2             6    3     1       0.5201299092E-02       6    3    1         0.1473388011E+00      0.2139726929E+00
          0                 4           2             6    3     1       0.2009926060E-02       6    3    1         0.5694413236E-01      0.7965969610E-01
          0                 5           1             6    3     1       0.7766169799E-03       6    3    1         0.2200396642E-01      0.3008135598E-01
          0                 6           1             6    3     1       0.3000536874E-03       6    3    1         0.8502004504E-02      0.1143130495E-01
          0                 7           1             6    3     1       0.1159209059E-03       6    3    1         0.3284778807E-02      0.4363651559E-02
          0                 8           1             6    3     1       0.4478161897E-04       6    3    1         0.1269004742E-02      0.1672695034E-02

    ------------------------------------------------
       NWT REQUIRED            8 OUTER ITERATIONS 
       AND A TOTAL OF         12 INNER ITERATIONS.
    ------------------------------------------------

 OUTPUT CONTROL FOR STRESS PERIOD    3   TIME STEP    1
    PRINT BUDGET
    SAVE BUDGET

            WELLS   PERIOD    3   STEP   1
 WELL      1   LAYER   1   ROW     6   COL     4   RATE    -1.00000    
 WELL      2   LAYER   1   ROW     6   COL     5   RATE    -1.00000    
 WELL      3   LAYER   1   ROW     7   COL     4   RATE    -1.00000    
 WELL      4   LAYER   1   ROW     7   COL     5   RATE    -1.00000    
 WELL      5   LAYER   1   ROW     8   COL     4   RATE    -1.00000    
 WELL      6   LAYER   1   ROW     8   COL     5   RATE    -1.00000    
 WELL      7   LAYER   1   ROW     9   COL     4   RATE    -1.00000    
 WELL      8   LAYER   1   ROW     9   COL     5   RATE    -1.00000    
 WELL      9   LAYER   1   ROW    10   COL     4   RATE    -1.00000    
 WELL     10   LAYER   1   ROW    10   COL     5   RATE    -1.00000    

  HEAD DEP BOUNDS   PERIOD    3   STEP     1
 BOUNDARY      1   LAYER   1   ROW    13   COL     1   RATE   -0.280526    
 BOUNDARY      2   LAYER   1   ROW    14   COL     9   RATE    0.207726    



 STREAM LISTING     PERIOD      3   STEP        1

 LAYER ROW COL. STREAM  RCH.  FLOW INTO     FLOW TO   FLOW OUT OF   OVRLND.     DIRECT     STREAM       STREAM     STREAM     STREAM   STREAMBED  STREAMBED
                SEG.NO.  NO.  STRM. RCH.    AQUIFER    STRM. RCH.    RUNOFF     PRECIP       ET          HEAD       DEPTH      WIDTH   CONDCTNC.   GRADIENT

   1    1    1     1     1    2.5000E+01  1.1998E+00   2.3800E+01  0.000E+00  0.000E+00  0.000E+00  1.09422E+03  1.171E+00  1.294E+01  5.824E-01  6.867E-01
   1    2    2     1     2    2.3800E+01  2.7458E+00   2.1054E+01  0.000E+00  0.000E+00  0.000E+00  1.08920E+03  1.140E+00  1.253E+01  8.774E-01  1.043E+00
   1    3    3     1     3    2.1054E+01  2.9175E+00   1.8137E+01  0.000E+00  0.000E+00  0.000E+00  1.08351E+03  1.094E+00  1.188E+01  7.127E-01  1.365E+00
   1    3    4     1     4    1.8137E+01  2.4789E+00   1.5658E+01  0.000E+00  0.000E+00  0.000E+00  1.07846E+03  1.048E+00  1.103E+01  6.124E-01  1.349E+00
   1    4    5     2     1    5.6581E+00  2.6687E+00   2.9894E+00  0.000E+00  0.000E+00  0.000E+00  1.07236E+03  4.214E-01  1.200E+01  7.800E-01  1.140E+00
   1    5    6     2     2    2.9894E+00  1.9596E+00   1.0298E+00  0.000E+00  0.000E+00  0.000E+00  1.06678E+03  2.661E-01  1.200E+01  6.000E-01  1.089E+00
   1    6    6     2     3    1.0298E+00  1.0298E+00   0.0000E+00  0.000E+00  0.000E+00  0.000E+00  1.06183E+03  4.008E-02  1.200E+01  6.000E-01  1.013E+00
   1    7    6     2     4    0.0000E+00  0.0000E+00   0.0000E+00  0.000E+00  0.000E+00  0.000E+00  1.05708E+03  0.000E+00  1.200E+01  6.000E-01  1.000E+00
   1    8    6     2     5    0.0000E+00  0.0000E+00   0.0000E+00  0.000E+00  0.000E+00  0.000E+00  1.05236E+03  0.000E+00  1.200E+01  6.000E-01  1.000E+00
   1    3    5     3     1    1.0000E+01  1.5918E+00   8.4082E+00  0.000E+00  0.000E+00  0.000E+00  1.07555E+03  1.909E+00  9.636E+00  7.227E-01  1.101E+00
   1    3    6     3     2    8.4082E+00  1.5058E+00   6.9024E+00  0.000E+00  0.000E+00  0.000E+00  1.07264E+03  1.727E+00  8.909E+00  6.682E-01  1.127E+00
   1    3    7     3     3    6.9024E+00  1.2863E+00   5.6161E+00  0.000E+00  0.000E+00  0.000E+00  1.06987E+03  1.555E+00  8.218E+00  5.547E-01  1.159E+00
   1    4    8     3     4    5.6161E+00  1.6833E+00   3.9328E+00  0.000E+00  0.000E+00  0.000E+00  1.06682E+03  1.364E+00  7.455E+00  6.709E-01  1.254E+00
   1    5    8     3     5    3.9328E+00  1.5790E+00   2.3538E+00  0.000E+00  0.000E+00  0.000E+00  1.06362E+03  1.164E+00  6.655E+00  4.991E-01  1.582E+00
   1    6    8     3     6    2.3538E+00  5.5980E-01   1.7941E+00  0.000E+00  0.000E+00  0.000E+00  1.06158E+03  1.036E+00  6.145E+00  1.844E-01  1.518E+00
   1    5   10     4     1    1.0000E+01  9.0525E-01   9.0947E+00  0.000E+00  0.000E+00  0.000E+00  1.07835E+03  6.210E-01  1.000E+01  2.500E-01  1.207E+00
   1    5    9     4     2    9.0947E+00  1.7835E+00   7.3113E+00  0.000E+00  0.000E+00  0.000E+00  1.07148E+03  5.670E-01  1.000E+01  5.000E-01  1.189E+00
   1    6    8     4     3    7.3113E+00  1.2257E+00   6.0855E+00  0.000E+00  0.000E+00  0.000E+00  1.06368E+03  5.021E-01  1.000E+01  3.500E-01  1.167E+00
   1    6    8     5     1    7.8796E+00  4.3074E-01   7.4489E+00  0.000E+00  0.000E+00  0.000E+00  1.05861E+03  6.119E-01  1.290E+01  5.159E-01  2.783E-01
   1    7    7     5     2    7.4489E+00  1.4174E+00   6.0315E+00  0.000E+00  0.000E+00  0.000E+00  1.05408E+03  5.850E-01  1.194E+01  5.970E-01  7.914E-01
   1    8    7     5     3    6.0315E+00  1.0425E+00   4.9890E+00  0.000E+00  0.000E+00  0.000E+00  1.04980E+03  5.452E-01  1.058E+01  3.703E-01  9.384E-01
   1    8    6     5     4    4.9890E+00  8.3041E-01   4.1586E+00  0.000E+00  0.000E+00  0.000E+00  1.04676E+03  5.108E-01  9.461E+00  2.365E-01  1.170E+00
   1    9    6     6     1    4.1586E+00  2.0115E+00   2.1471E+00  0.000E+00  0.000E+00  0.000E+00  1.04308E+03  3.525E-01  1.200E+01  6.000E-01  1.118E+00
   1   10    7     6     2    2.1471E+00  1.3675E+00   7.7960E-01  0.000E+00  0.000E+00  0.000E+00  1.03840E+03  2.224E-01  1.200E+01  6.000E-01  7.597E-01
   1   11    7     6     3    7.7960E-01  7.7960E-01   0.0000E+00  0.000E+00  0.000E+00  0.000E+00  1.03367E+03  3.430E-02  1.200E+01  6.000E-01  9.837E-01
   1   12    7     6     4    0.0000E+00  0.0000E+00   0.0000E+00  0.000E+00  0.000E+00  0.000E+00  1.02909E+03  0.000E+00  1.200E+01  6.000E-01  7.124E-01
   1   13    7     6     5    0.0000E+00 -7.9898E-01   7.9898E-01  0.000E+00  0.000E+00  0.000E+00  1.02601E+03  1.021E-01  1.200E+01  2.400E-01 -1.110E+00
   1   14    9     7     1    1.5000E+02  1.8648E+00   1.4814E+02  0.000E+00  0.000E+00  0.000E+00  1.03987E+03  2.286E+00  5.529E+01  5.592E+00  1.112E-01
   1   13    8     7     2    1.4814E+02  1.9102E+00   1.4623E+02  0.000E+00  0.000E+00  0.000E+00  1.03478E+03  2.276E+00  5.524E+01  6.146E+00  1.036E-01
   1   13    7     7     3    1.4623E+02  1.9267E+00   1.4430E+02  0.000E+00  0.000E+00  0.000E+00  1.02969E+03  2.266E+00  5.520E+01  5.582E+00  1.150E-01
   1   13    6     8     1    1.4510E+02  6.3675E-01   1.4446E+02  0.000E+00  0.000E+00  0.000E+00  1.02465E+03  2.780E+00  4.031E+01  4.107E+00  5.168E-02
   1   13    5     8     2    1.4446E+02 -2.2130E-01   1.4468E+02  0.000E+00  0.000E+00  0.000E+00  1.01840E+03  2.778E+00  4.028E+01  4.105E+00 -1.797E-02
   1   13    4     8     3    1.4468E+02 -1.0292E+00   1.4571E+02  0.000E+00  0.000E+00  0.000E+00  1.01216E+03  2.783E+00  4.035E+01  4.112E+00 -8.344E-02
   1   13    3     8     4    1.4571E+02 -1.6759E+00   1.4739E+02  0.000E+00  0.000E+00  0.000E+00  1.00592E+03  2.792E+00  4.049E+01  4.126E+00 -1.354E-01
   1   13    2     8     5    1.4739E+02 -1.7333E+00   1.4912E+02  0.000E+00  0.000E+00  0.000E+00  9.99680E+02  2.804E+00  4.067E+01  4.144E+00 -1.394E-01
   1   13    1     8     6    1.4912E+02 -1.7245E+00   1.5084E+02  0.000E+00  0.000E+00  0.000E+00  9.94692E+02  2.817E+00  4.084E+01  2.497E+00 -2.302E-01



 UBDSV3 SAVING "           GW ET" ON UNIT  61 AT TIME STEP  1, STRESS PERIOD   3
 UBDSV3 SAVING "    UZF RECHARGE" ON UNIT  61 AT TIME STEP  1, STRESS PERIOD   3
 UBDSV3 SAVING " SURFACE LEAKAGE" ON UNIT  61 AT TIME STEP  1, STRESS PERIOD   3
 UBDSV3 SAVING "       HORT+DUNN" ON UNIT  61 AT TIME STEP  1, STRESS PERIOD   3
 UBDSV3 SAVING "  STORAGE CHANGE" ON UNIT  61 AT TIME STEP  1, STRESS PERIOD   3


UNSATURATED ZONE PACKAGE VOLUMETRIC BUDGET FOR  TIME STEP     1 STRESS PERIOD    3
  ------------------------------------------------------------------------------



     CUMULATIVE VOLUMES      L**3       RATES FOR THIS TIME STEP      L**3/T
     ------------------                 ------------------------

           IN:                                      IN:
           ---                                      ---
        INFILTRATION =   207460615.3359          INFILTRATION =          84.7500

          OUT:                                     OUT:
          ----                                     ----
              UZF ET =       0.0000E+00                UZF ET =       0.0000E+00
        UZF RECHARGE =    49934182.3779          UZF RECHARGE =          17.6657

            IN - OUT =   157526432.9580              IN - OUT =          67.0843

          STORAGE:                                 STORAGE:
          --------                                 --------
      STORAGE CHANGE =   157505575.8755        STORAGE CHANGE =          67.0843

 PERCENT DISCREPANCY IS DIFFERENCE BETWEEN IN-OUT MINUS CHANGE IN STORAGE
 DIVIDED BY THE AVERAGE OF IN AND OUT TIMES 100

 PERCENT DISCREPANCY =           0.00     PERCENT DISCREPANCY =           0.00






1
  VOLUMETRIC BUDGET FOR ENTIRE MODEL AT END OF TIME STEP    1, STRESS PERIOD   3
  ------------------------------------------------------------------------------

     CUMULATIVE VOLUMES      L**3       RATES FOR THIS TIME STEP      L**3/T
     ------------------                 ------------------------

           IN:                                      IN:
           ---                                      ---
             STORAGE     =      138025.2500               STORAGE     =       3.4177E-02
       CONSTANT HEAD     =           0.0000         CONSTANT HEAD     =           0.0000
               WELLS     =           0.0000                 WELLS     =           0.0000
     HEAD DEP BOUNDS     =     1108985.8750       HEAD DEP BOUNDS     =           0.2077
      STREAM LEAKAGE     =   220696896.0000        STREAM LEAKAGE     =          41.3384
        UZF RECHARGE     =    49934196.0000          UZF RECHARGE     =          17.6657
               GW ET     =           0.0000                 GW ET     =           0.0000
     SURFACE LEAKAGE     =           0.0000       SURFACE LEAKAGE     =           0.0000

                TOTAL IN =   271878112.0000                  TOTAL IN =          59.2459

          OUT:                                     OUT:
          ----                                     ----
             STORAGE     =     5442812.5000               STORAGE     =          18.7370
       CONSTANT HEAD     =           0.0000         CONSTANT HEAD     =           0.0000
               WELLS     =   105947120.0000                 WELLS     =          10.0000
     HEAD DEP BOUNDS     =     1497575.8750       HEAD DEP BOUNDS     =           0.2805
      STREAM LEAKAGE     =    36542544.0000        STREAM LEAKAGE     =           7.1831
        UZF RECHARGE     =           0.0000          UZF RECHARGE     =           0.0000
               GW ET     =   122447920.0000                 GW ET     =          23.0443
     SURFACE LEAKAGE     =           0.0000       SURFACE LEAKAGE     =           0.0000

               TOTAL OUT =   271877952.0000                 TOTAL OUT =          59.2449

                IN - OUT =         160.0000                  IN - OUT =       9.9182E-04

     PERCENT DISCREPANCY =           0.00         PERCENT DISCREPANCY =           0.00






         TIME SUMMARY AT END OF TIME STEP    1 IN STRESS PERIOD    3
                    SECONDS     MINUTES      HOURS       DAYS        YEARS
                    -----------------------------------------------------------
   TIME STEP LENGTH  82713.      1378.6      22.976     0.95733     2.62102E-03
 STRESS PERIOD TIME  82713.      1378.6      22.976     0.95733     2.62102E-03
         TOTAL TIME 5.33871E+06  88979.      1483.0      61.791     0.16917    
1
 
 SOLVING FOR HEAD 
                                                   Max.-Head-Change                         Max.-Flux-Residual
  Residual-Control   Outer-Iter.   Inner-Iter.     Column Row Layer    Maximum-Head-Change  Column Row Layer    Maximum-Flux-Residual          L2-NORM 
          0                 1           2             6    3     1       0.3620725455E-01       4    7    1         0.9995563106E+00      0.3535213038E+01
          0                 2           2             6    3     1       0.1394427569E-01       6    3    1         0.3601976863E+00      0.6105248883E+00
          0                 3           2             6    3     1       0.5369309891E-02       6    3    1         0.1386737980E+00      0.2019309664E+00
          0                 4           2             6    3     1       0.2067204955E-02       6    3    1         0.5339927898E-01      0.7481590066E-01
          0                 5           1             6    3     1       0.7957962448E-03       6    3    1         0.2055800477E-01      0.2813340723E-01
          0                 6           1             6    3     1       0.3063241013E-03       6    3    1         0.7913932192E-02      0.1064743829E-01
          0                 7           1             6    3     1       0.1179037192E-03       6    3    1         0.3046234339E-02      0.4048425235E-02
          0                 8           1             6    3     1       0.4537806453E-04       6    3    1         0.1172474091E-02      0.1546948244E-02

    ------------------------------------------------
       NWT REQUIRED            8 OUTER ITERATIONS 
       AND A TOTAL OF         12 INNER ITERATIONS.
    ------------------------------------------------

 NO OUTPUT CONTROL FOR STRESS PERIOD    3   TIME STEP    2
 
 SOLVING FOR HEAD 
                                                   Max.-Head-Change                         Max.-Flux-Residual
  Residual-Control   Outer-Iter.   Inner-Iter.     Column Row Layer    Maximum-Head-Change  Column Row Layer    Maximum-Flux-Residual          L2-NORM 
          0                 1           2             6    3     1       0.3745079581E-01       4    7    1         0.9980869717E+00      0.3500603085E+01
          0                 2           2             6    3     1       0.1436557079E-01       6    3    1         0.3384300526E+00      0.5824266824E+00
          0                 3           2             6    3     1       0.5509280146E-02       6    3    1         0.1297674586E+00      0.1895835050E+00
          0                 4           2             6    3     1       0.2112524079E-02       6    3    1         0.4976889079E-01      0.6985959325E-01
          0                 5           1             6    3     1       0.8099454682E-03       6    3    1         0.1908282901E-01      0.2614777489E-01
          0                 6           1             6    3     1       0.3105030734E-03       6    3    1         0.7316257159E-02      0.9851114361E-02
          0                 7           1             6    3     1       0.1190252063E-03       6    3    1         0.2804721303E-02      0.3729349668E-02
          0                 8           1             6    3     1       0.4562266112E-04       6    3    1         0.1075116535E-02      0.1419366310E-02

    ------------------------------------------------
       NWT REQUIRED            8 OUTER ITERATIONS 
       AND A TOTAL OF         12 INNER ITERATIONS.
    ------------------------------------------------

 NO OUTPUT CONTROL FOR STRESS PERIOD    3   TIME STEP    3
 
 SOLVING FOR HEAD 
                                                   Max.-Head-Change                         Max.-Flux-Residual
  Residual-Control   Outer-Iter.   Inner-Iter.     Column Row Layer    Maximum-Head-Change  Column Row Layer    Maximum-Flux-Residual          L2-NORM 
          0                 1           2             6    3     1       0.3850974202E-01       4    7    1         0.9965268350E+00      0.3467666728E+01
          0                 2           2             6    3     1       0.1470712177E-01       6    3    1         0.3160839054E+00      0.5540652735E+00
          0                 3           2             6    3     1       0.5615399727E-02       6    3    1         0.1206646823E+00      0.1769922133E+00
          0                 4           2             6    3     1       0.2143678357E-02       6    3    1         0.4607374708E-01      0.6481876621E-01
          0                 5           1             6    3     1       0.8182369119E-03       6    3    1         0.1758765831E-01      0.2413682379E-01
          0                 6           1             6    3     1       0.3122834329E-03       6    3    1         0.6713026895E-02      0.9048227825E-02
          0                 7           1             6    3     1       0.1191727766E-03       6    3    1         0.2561991581E-02      0.3408731343E-02
          0                 8           1             4   15     1      -0.4549264815E-04       6    3    1         0.9776820866E-03      0.1291434281E-02

    ------------------------------------------------
       NWT REQUIRED            8 OUTER ITERATIONS 
       AND A TOTAL OF         12 INNER ITERATIONS.
    ------------------------------------------------

 NO OUTPUT CONTROL FOR STRESS PERIOD    3   TIME STEP    4
 
 SOLVING FOR HEAD 
                                                   Max.-Head-Change                         Max.-Flux-Residual
  Residual-Control   Outer-Iter.   Inner-Iter.     Column Row Layer    Maximum-Head-Change  Column Row Layer    Maximum-Flux-Residual          L2-NORM 
          0                 1           2             6    3     1       0.3934427864E-01       4    7    1         0.9948295171E+00      0.3436599538E+01
          0                 2           2             6    3     1       0.1495383694E-01       6    3    1         0.2932900988E+00      0.5256890007E+00
          0                 3           2             6    3     1       0.5682018559E-02       6    3    1         0.1114232237E+00      0.1642387848E+00
          0                 4           2             6    3     1       0.2158580990E-02       6    3    1         0.4233946240E-01      0.5972776256E-01
          0                 5           1             6    3     1       0.8199111347E-03       6    3    1         0.1608362661E-01      0.2211530845E-01
          0                 6           1             6    3     1       0.3113933430E-03       6    3    1         0.6109025636E-02      0.8244954581E-02
          0                 7           1             6    3     1       0.1182509934E-03       6    3    1         0.2320077927E-02      0.3089504239E-02
          0                 8           1             4   15     1      -0.4666139780E-04       6    3    1         0.8810261691E-03      0.1164610581E-02

    ------------------------------------------------
       NWT REQUIRED            8 OUTER ITERATIONS 
       AND A TOTAL OF         12 INNER ITERATIONS.
    ------------------------------------------------

 OUTPUT CONTROL FOR STRESS PERIOD    3   TIME STEP    5
    PRINT BUDGET
    SAVE BUDGET

            WELLS   PERIOD    3   STEP   5
 WELL      1   LAYER   1   ROW     6   COL     4   RATE    -1.00000    
 WELL      2   LAYER   1   ROW     6   COL     5   RATE    -1.00000    
 WELL      3   LAYER   1   ROW     7   COL     4   RATE    -1.00000    
 WELL      4   LAYER   1   ROW     7   COL     5   RATE    -1.00000    
 WELL      5   LAYER   1   ROW     8   COL     4   RATE    -1.00000    
 WELL      6   LAYER   1   ROW     8   COL     5   RATE    -1.00000    
 WELL      7   LAYER   1   ROW     9   COL     4   RATE    -1.00000    
 WELL      8   LAYER   1   ROW     9   COL     5   RATE    -1.00000    
 WELL      9   LAYER   1   ROW    10   COL     4   RATE    -1.00000    
 WELL     10   LAYER   1   ROW    10   COL     5   RATE    -1.00000    

  HEAD DEP BOUNDS   PERIOD    3   STEP     5
 BOUNDARY      1   LAYER   1   ROW    13   COL     1   RATE   -0.280549    
 BOUNDARY      2   LAYER   1   ROW    14   COL     9   RATE    0.207725    



 STREAM LISTING     PERIOD      3   STEP        5

 LAYER ROW COL. STREAM  RCH.  FLOW INTO     FLOW TO   FLOW OUT OF   OVRLND.     DIRECT     STREAM       STREAM     STREAM     STREAM   STREAMBED  STREAMBED
                SEG.NO.  NO.  STRM. RCH.    AQUIFER    STRM. RCH.    RUNOFF     PRECIP       ET          HEAD       DEPTH      WIDTH   CONDCTNC.   GRADIENT

   1    1    1     1     1    2.5000E+01  1.1997E+00   2.3800E+01  0.000E+00  0.000E+00  0.000E+00  1.09422E+03  1.171E+00  1.294E+01  5.824E-01  6.867E-01
   1    2    2     1     2    2.3800E+01  2.7456E+00   2.1055E+01  0.000E+00  0.000E+00  0.000E+00  1.08920E+03  1.140E+00  1.253E+01  8.774E-01  1.043E+00
   1    3    3     1     3    2.1055E+01  2.9176E+00   1.8137E+01  0.000E+00  0.000E+00  0.000E+00  1.08351E+03  1.094E+00  1.188E+01  7.127E-01  1.365E+00
   1    3    4     1     4    1.8137E+01  2.4789E+00   1.5658E+01  0.000E+00  0.000E+00  0.000E+00  1.07846E+03  1.048E+00  1.103E+01  6.124E-01  1.349E+00
   1    4    5     2     1    5.6582E+00  2.6687E+00   2.9896E+00  0.000E+00  0.000E+00  0.000E+00  1.07236E+03  4.214E-01  1.200E+01  7.800E-01  1.140E+00
   1    5    6     2     2    2.9896E+00  1.9597E+00   1.0299E+00  0.000E+00  0.000E+00  0.000E+00  1.06678E+03  2.661E-01  1.200E+01  6.000E-01  1.089E+00
   1    6    6     2     3    1.0299E+00  1.0299E+00   0.0000E+00  0.000E+00  0.000E+00  0.000E+00  1.06183E+03  4.009E-02  1.200E+01  6.000E-01  1.013E+00
   1    7    6     2     4    0.0000E+00  0.0000E+00   0.0000E+00  0.000E+00  0.000E+00  0.000E+00  1.05708E+03  0.000E+00  1.200E+01  6.000E-01  1.000E+00
   1    8    6     2     5    0.0000E+00  0.0000E+00   0.0000E+00  0.000E+00  0.000E+00  0.000E+00  1.05236E+03  0.000E+00  1.200E+01  6.000E-01  1.000E+00
   1    3    5     3     1    1.0000E+01  1.4493E+00   8.5507E+00  0.000E+00  0.000E+00  0.000E+00  1.07555E+03  1.909E+00  9.636E+00  7.227E-01  1.003E+00
   1    3    6     3     2    8.5507E+00  1.3419E+00   7.2088E+00  0.000E+00  0.000E+00  0.000E+00  1.07264E+03  1.727E+00  8.909E+00  6.682E-01  1.004E+00
   1    3    7     3     3    7.2088E+00  1.1724E+00   6.0364E+00  0.000E+00  0.000E+00  0.000E+00  1.06987E+03  1.555E+00  8.218E+00  5.547E-01  1.057E+00
   1    4    8     3     4    6.0364E+00  1.6829E+00   4.3535E+00  0.000E+00  0.000E+00  0.000E+00  1.06682E+03  1.364E+00  7.455E+00  6.709E-01  1.254E+00
   1    5    8     3     5    4.3535E+00  1.5790E+00   2.7745E+00  0.000E+00  0.000E+00  0.000E+00  1.06362E+03  1.164E+00  6.655E+00  4.991E-01  1.582E+00
   1    6    8     3     6    2.7745E+00  5.5980E-01   2.2147E+00  0.000E+00  0.000E+00  0.000E+00  1.06158E+03  1.036E+00  6.145E+00  1.844E-01  1.518E+00
   1    5   10     4     1    1.0000E+01  9.0525E-01   9.0947E+00  0.000E+00  0.000E+00  0.000E+00  1.07835E+03  6.210E-01  1.000E+01  2.500E-01  1.207E+00
   1    5    9     4     2    9.0947E+00  1.7835E+00   7.3113E+00  0.000E+00  0.000E+00  0.000E+00  1.07148E+03  5.670E-01  1.000E+01  5.000E-01  1.189E+00
   1    6    8     4     3    7.3113E+00  1.2257E+00   6.0855E+00  0.000E+00  0.000E+00  0.000E+00  1.06368E+03  5.021E-01  1.000E+01  3.500E-01  1.167E+00
   1    6    8     5     1    8.3002E+00  4.4798E-01   7.8522E+00  0.000E+00  0.000E+00  0.000E+00  1.05862E+03  6.232E-01  1.331E+01  5.323E-01  2.805E-01
   1    7    7     5     2    7.8522E+00  1.4639E+00   6.3883E+00  0.000E+00  0.000E+00  0.000E+00  1.05410E+03  5.963E-01  1.234E+01  6.170E-01  7.910E-01
   1    8    7     5     3    6.3883E+00  1.0807E+00   5.3076E+00  0.000E+00  0.000E+00  0.000E+00  1.04981E+03  5.566E-01  1.096E+01  3.838E-01  9.387E-01
   1    8    6     5     4    5.3076E+00  8.6561E-01   4.4420E+00  0.000E+00  0.000E+00  0.000E+00  1.04677E+03  5.223E-01  9.830E+00  2.458E-01  1.174E+00
   1    9    6     6     1    4.4420E+00  2.0225E+00   2.4195E+00  0.000E+00  0.000E+00  0.000E+00  1.04310E+03  3.709E-01  1.200E+01  6.000E-01  1.124E+00
   1   10    7     6     2    2.4195E+00  1.3790E+00   1.0405E+00  0.000E+00  0.000E+00  0.000E+00  1.03843E+03  2.459E-01  1.200E+01  6.000E-01  7.661E-01
   1   11    7     6     3    1.0405E+00  1.0405E+00   0.0000E+00  0.000E+00  0.000E+00  0.000E+00  1.03368E+03  4.078E-02  1.200E+01  6.000E-01  9.652E-01
   1   12    7     6     4    0.0000E+00  0.0000E+00   0.0000E+00  0.000E+00  0.000E+00  0.000E+00  1.02909E+03  0.000E+00  1.200E+01  6.000E-01  7.121E-01
   1   13    7     6     5    0.0000E+00 -7.9900E-01   7.9900E-01  0.000E+00  0.000E+00  0.000E+00  1.02601E+03  1.021E-01  1.200E+01  2.400E-01 -1.110E+00
   1   14    9     7     1    1.5000E+02  1.8647E+00   1.4814E+02  0.000E+00  0.000E+00  0.000E+00  1.03987E+03  2.286E+00  5.529E+01  5.592E+00  1.111E-01
   1   13    8     7     2    1.4814E+02  1.9099E+00   1.4623E+02  0.000E+00  0.000E+00  0.000E+00  1.03478E+03  2.276E+00  5.524E+01  6.146E+00  1.036E-01
   1   13    7     7     3    1.4623E+02  1.9261E+00   1.4430E+02  0.000E+00  0.000E+00  0.000E+00  1.02969E+03  2.266E+00  5.520E+01  5.582E+00  1.150E-01
   1   13    6     8     1    1.4510E+02  6.3528E-01   1.4446E+02  0.000E+00  0.000E+00  0.000E+00  1.02465E+03  2.780E+00  4.031E+01  4.107E+00  5.156E-02
   1   13    5     8     2    1.4446E+02 -2.8853E-01   1.4475E+02  0.000E+00  0.000E+00  0.000E+00  1.01840E+03  2.778E+00  4.029E+01  4.105E+00 -2.343E-02
   1   13    4     8     3    1.4475E+02 -1.1051E+00   1.4586E+02  0.000E+00  0.000E+00  0.000E+00  1.01216E+03  2.783E+00  4.036E+01  4.113E+00 -8.956E-02
   1   13    3     8     4    1.4586E+02 -1.7618E+00   1.4762E+02  0.000E+00  0.000E+00  0.000E+00  1.00592E+03  2.794E+00  4.051E+01  4.128E+00 -1.423E-01
   1   13    2     8     5    1.4762E+02 -1.7325E+00   1.4935E+02  0.000E+00  0.000E+00  0.000E+00  9.99681E+02  2.806E+00  4.069E+01  4.146E+00 -1.393E-01
   1   13    1     8     6    1.4935E+02 -1.7229E+00   1.5107E+02  0.000E+00  0.000E+00  0.000E+00  9.94693E+02  2.818E+00  4.087E+01  2.499E+00 -2.298E-01



 UBDSV3 SAVING "           GW ET" ON UNIT  61 AT TIME STEP  5, STRESS PERIOD   3
 UBDSV3 SAVING "    UZF RECHARGE" ON UNIT  61 AT TIME STEP  5, STRESS PERIOD   3
 UBDSV3 SAVING " SURFACE LEAKAGE" ON UNIT  61 AT TIME STEP  5, STRESS PERIOD   3
 UBDSV3 SAVING "       HORT+DUNN" ON UNIT  61 AT TIME STEP  5, STRESS PERIOD   3
 UBDSV3 SAVING "  STORAGE CHANGE" ON UNIT  61 AT TIME STEP  5, STRESS PERIOD   3


UNSATURATED ZONE PACKAGE VOLUMETRIC BUDGET FOR  TIME STEP     5 STRESS PERIOD    3
  ------------------------------------------------------------------------------



     CUMULATIVE VOLUMES      L**3       RATES FOR THIS TIME STEP      L**3/T
     ------------------                 ------------------------

           IN:                                      IN:
           ---                                      ---
        INFILTRATION =   243247024.4336          INFILTRATION =          84.7500

          OUT:                                     OUT:
          ----                                     ----
              UZF ET =       0.0000E+00                UZF ET =       0.0000E+00
        UZF RECHARGE =    57264592.1709          UZF RECHARGE =          17.1965

            IN - OUT =   185982432.2627              IN - OUT =          67.5535

          STORAGE:                                 STORAGE:
          --------                                 --------
      STORAGE CHANGE =   185961570.8406        STORAGE CHANGE =          67.5535

 PERCENT DISCREPANCY IS DIFFERENCE BETWEEN IN-OUT MINUS CHANGE IN STORAGE
 DIVIDED BY THE AVERAGE OF IN AND OUT TIMES 100

 PERCENT DISCREPANCY =           0.00     PERCENT DISCREPANCY =           0.00






1
  VOLUMETRIC BUDGET FOR ENTIRE MODEL AT END OF TIME STEP    5, STRESS PERIOD   3
  ------------------------------------------------------------------------------

     CUMULATIVE VOLUMES      L**3       RATES FOR THIS TIME STEP      L**3/T
     ------------------                 ------------------------

           IN:                                      IN:
           ---                                      ---
             STORAGE     =      151200.3438               STORAGE     =       2.9701E-02
       CONSTANT HEAD     =           0.0000         CONSTANT HEAD     =           0.0000
               WELLS     =           0.0000                 WELLS     =           0.0000
     HEAD DEP BOUNDS     =     1196699.7500       HEAD DEP BOUNDS     =           0.2077
      STREAM LEAKAGE     =   238151792.0000        STREAM LEAKAGE     =          41.3360
        UZF RECHARGE     =    57264608.0000          UZF RECHARGE     =          17.1965
               GW ET     =           0.0000                 GW ET     =           0.0000
     SURFACE LEAKAGE     =           0.0000       SURFACE LEAKAGE     =           0.0000

                TOTAL IN =   296764288.0000                  TOTAL IN =          58.7699

          OUT:                                     OUT:
          ----                                     ----
             STORAGE     =    13142172.0000               STORAGE     =          17.9672
       CONSTANT HEAD     =           0.0000         CONSTANT HEAD     =           0.0000
               WELLS     =   110169704.0000                 WELLS     =          10.0000
     HEAD DEP BOUNDS     =     1616036.1250       HEAD DEP BOUNDS     =           0.2805
      STREAM LEAKAGE     =    39639100.0000        STREAM LEAKAGE     =           7.4098
        UZF RECHARGE     =           0.0000          UZF RECHARGE     =           0.0000
               GW ET     =   132196832.0000                 GW ET     =          23.1117
     SURFACE LEAKAGE     =           0.0000       SURFACE LEAKAGE     =           0.0000

               TOTAL OUT =   296763840.0000                 TOTAL OUT =          58.7692

                IN - OUT =         448.0000                  IN - OUT =       6.6757E-04

     PERCENT DISCREPANCY =           0.00         PERCENT DISCREPANCY =           0.00






         TIME SUMMARY AT END OF TIME STEP    5 IN STRESS PERIOD    3
                    SECONDS     MINUTES      HOURS       DAYS        YEARS
                    -----------------------------------------------------------
   TIME STEP LENGTH 1.21100E+05  2018.3      33.639      1.4016     3.83743E-03
 STRESS PERIOD TIME 5.04972E+05  8416.2      140.27      5.8446     1.60016E-02
         TOTAL TIME 5.76097E+06  96016.      1600.3      66.678     0.18255    
1
 
 SOLVING FOR HEAD 
                                                   Max.-Head-Change                         Max.-Flux-Residual
  Residual-Control   Outer-Iter.   Inner-Iter.     Column Row Layer    Maximum-Head-Change  Column Row Layer    Maximum-Flux-Residual          L2-NORM 
          0                 1           2             6    3     1       0.3991540419E-01       4    7    1         0.9929669987E+00      0.3407609727E+01
          0                 2           2             6    3     1       0.1509135174E-01       6    3    1         0.2702082366E+00      0.4975840264E+00
          0                 3           2             6    3     1       0.5703932150E-02       6    3    1         0.1021124068E+00      0.1514198201E+00
          0                 4           2             6    3     1       0.2155382393E-02       6    3    1         0.3859606893E-01      0.5462683240E-01
          0                 5           1             6    3     1       0.8143257512E-03       6    3    1         0.1458354331E-01      0.2010018711E-01
          0                 6           1             6    3     1       0.3076159906E-03       6    3    1         0.5509660047E-02      0.7448479020E-02
          0                 7           1             6    3     1       0.1161894146E-03       6    3    1         0.2081239640E-02      0.2774729643E-02
          0                 8           1             4   15     1      -0.4730361643E-04       6    3    1         0.7860845747E-03      0.1040197145E-02

    ------------------------------------------------
       NWT REQUIRED            8 OUTER ITERATIONS 
       AND A TOTAL OF         12 INNER ITERATIONS.
    ------------------------------------------------

 NO OUTPUT CONTROL FOR STRESS PERIOD    3   TIME STEP    6
 
 SOLVING FOR HEAD 
                                                   Max.-Head-Change                         Max.-Flux-Residual
  Residual-Control   Outer-Iter.   Inner-Iter.     Column Row Layer    Maximum-Head-Change  Column Row Layer    Maximum-Flux-Residual          L2-NORM 
          0                 1           2             5    3     1       0.4047157314E-01       4    7    1         0.9909149788E+00      0.3405369438E+01
          0                 2           2             5    3     1       0.1642096690E-01       5    3    1         0.2692741912E+00      0.5057691696E+00
          0                 3           2             5    3     1       0.6660980919E-02       5    3    1         0.1092185489E+00      0.1608561792E+00
          0                 4           2             5    3     1       0.2701558820E-02       5    3    1         0.4430428422E-01      0.6068606676E-01
          0                 5           1             5    3     1       0.1095568811E-02       5    3    1         0.1796818337E-01      0.2341624819E-01
          0                 6           1             5    3     1       0.4441464061E-03       5    3    1         0.7285504503E-02      0.9125365124E-02
          0                 7           1             5    3     1       0.1800633988E-03       5    3    1         0.2953866151E-02      0.3582835439E-02
          0                 8           1             5    3     1       0.7299403436E-04       5    3    1         0.1197518594E-02      0.1416023228E-02

    ------------------------------------------------
       NWT REQUIRED            8 OUTER ITERATIONS 
       AND A TOTAL OF         12 INNER ITERATIONS.
    ------------------------------------------------

 NO OUTPUT CONTROL FOR STRESS PERIOD    3   TIME STEP    7
 
 SOLVING FOR HEAD 
                                                   Max.-Head-Change                         Max.-Flux-Residual
  Residual-Control   Outer-Iter.   Inner-Iter.     Column Row Layer    Maximum-Head-Change  Column Row Layer    Maximum-Flux-Residual          L2-NORM 
          0                 1           2             5    3     1       0.5725996918E-01       4    7    1         0.9886629039E+00      0.3460554456E+01
          0                 2           2             5    3     1       0.2307240684E-01       5    3    1         0.3458421022E+00      0.5724494860E+00
          0                 3           2             5    3     1       0.9295785492E-02       5    3    1         0.1393179535E+00      0.1976307521E+00
          0                 4           2             5    3     1       0.3745145099E-02       5    3    1         0.5613292532E-01      0.7766354701E-01
          0                 5           2             5    3     1       0.1508857146E-02       5    3    1         0.2261485909E-01      0.3095018747E-01
          0                 6           1             5    3     1       0.6078921986E-03       5    3    1         0.9111175651E-02      0.1239406895E-01
          0                 7           1             5    3     1       0.2449090823E-03       5    3    1         0.3670730042E-02      0.4977666544E-02
          0                 8           1             5    3     1       0.9866966097E-04       5    3    1         0.1478872999E-02      0.2003457695E-02

    ------------------------------------------------
       NWT REQUIRED            8 OUTER ITERATIONS 
       AND A TOTAL OF         13 INNER ITERATIONS.
    ------------------------------------------------

 NO OUTPUT CONTROL FOR STRESS PERIOD    3   TIME STEP    8
 
 SOLVING FOR HEAD 
                                                   Max.-Head-Change                         Max.-Flux-Residual
  Residual-Control   Outer-Iter.   Inner-Iter.     Column Row Layer    Maximum-Head-Change  Column Row Layer    Maximum-Flux-Residual          L2-NORM 
          0                 1           2             6    3     1       0.6774730882E-01       4    7    1         0.9862113954E+00      0.3491969065E+01
          0                 2           2             6    3     1       0.2720694108E-01       6    3    1         0.3717786723E+00      0.5907214022E+00
          0                 3           2             6    3     1       0.1092209769E-01       6    3    1         0.1492447631E+00      0.2050291389E+00
          0                 4           2             6    3     1       0.4383614402E-02       6    3    1         0.5991426135E-01      0.8035956637E-01
          0                 5           2             6    3     1       0.1759080373E-02       6    3    1         0.2404535286E-01      0.3189118267E-01
          0                 6           1             6    3     1       0.7058022048E-03       6    3    1         0.9648792060E-02      0.1270604137E-01
          0                 7           1             6    3     1       0.2831630499E-03       6    3    1         0.3871322240E-02      0.5073884775E-02
          0                 8           1             6    3     1       0.1135940741E-03       6    3    1         0.1553119130E-02      0.2029524288E-02
          0                 9           1             6    3     1       0.4556668902E-04       6    3    1         0.6230419904E-03      0.8136349174E-03

    ------------------------------------------------
       NWT REQUIRED            9 OUTER ITERATIONS 
       AND A TOTAL OF         14 INNER ITERATIONS.
    ------------------------------------------------

 NO OUTPUT CONTROL FOR STRESS PERIOD    3   TIME STEP    9
 
 SOLVING FOR HEAD 
                                                   Max.-Head-Change                         Max.-Flux-Residual
  Residual-Control   Outer-Iter.   Inner-Iter.     Column Row Layer    Maximum-Head-Change  Column Row Layer    Maximum-Flux-Residual          L2-NORM 
          0                 1           2             6    3     1       0.6586810257E-01       7   11    1         0.1020610090E+01      0.3491461161E+01
          0                 2           2             6    3     1       0.2626937466E-01       6    3    1         0.3281752450E+00      0.5689483270E+00
          0                 3           2             6    3     1       0.1047204499E-01       6    3    1         0.1308174046E+00      0.1913986957E+00
          0                 4           2             6    3     1       0.4173394562E-02       6    3    1         0.5215004043E-01      0.7356825496E-01
          0                 5           2             6    3     1       0.1662840963E-02       6    3    1         0.2078166993E-01      0.2869866941E-01
          0                 6           1             6    3     1       0.6624175261E-03       6    3    1         0.8279914069E-02      0.1125520522E-01
          0                 7           1             6    3     1       0.2638427609E-03       6    3    1         0.3298305793E-02      0.4430141150E-02
          0                 8           1             6    3     1       0.1050753582E-03       6    3    1         0.1313685335E-02      0.1749026362E-02
          0                 9           1             6    3     1       0.4184150638E-04       6    3    1         0.5231615719E-03      0.6928542219E-03

    ------------------------------------------------
       NWT REQUIRED            9 OUTER ITERATIONS 
       AND A TOTAL OF         14 INNER ITERATIONS.
    ------------------------------------------------

 OUTPUT CONTROL FOR STRESS PERIOD    3   TIME STEP   10
    PRINT BUDGET
    SAVE BUDGET

            WELLS   PERIOD    3   STEP  10
 WELL      1   LAYER   1   ROW     6   COL     4   RATE    -1.00000    
 WELL      2   LAYER   1   ROW     6   COL     5   RATE    -1.00000    
 WELL      3   LAYER   1   ROW     7   COL     4   RATE    -1.00000    
 WELL      4   LAYER   1   ROW     7   COL     5   RATE    -1.00000    
 WELL      5   LAYER   1   ROW     8   COL     4   RATE    -1.00000    
 WELL      6   LAYER   1   ROW     8   COL     5   RATE    -1.00000    
 WELL      7   LAYER   1   ROW     9   COL     4   RATE    -1.00000    
 WELL      8   LAYER   1   ROW     9   COL     5   RATE    -1.00000    
 WELL      9   LAYER   1   ROW    10   COL     4   RATE    -1.00000    
 WELL     10   LAYER   1   ROW    10   COL     5   RATE    -1.00000    

  HEAD DEP BOUNDS   PERIOD    3   STEP    10
 BOUNDARY      1   LAYER   1   ROW    13   COL     1   RATE   -0.281119    
 BOUNDARY      2   LAYER   1   ROW    14   COL     9   RATE    0.207724    



 STREAM LISTING     PERIOD      3   STEP       10

 LAYER ROW COL. STREAM  RCH.  FLOW INTO     FLOW TO   FLOW OUT OF   OVRLND.     DIRECT     STREAM       STREAM     STREAM     STREAM   STREAMBED  STREAMBED
                SEG.NO.  NO.  STRM. RCH.    AQUIFER    STRM. RCH.    RUNOFF     PRECIP       ET          HEAD       DEPTH      WIDTH   CONDCTNC.   GRADIENT

   1    1    1     1     1    2.5000E+01  1.1997E+00   2.3800E+01  0.000E+00  0.000E+00  0.000E+00  1.09422E+03  1.171E+00  1.294E+01  5.824E-01  6.866E-01
   1    2    2     1     2    2.3800E+01  2.7451E+00   2.1055E+01  0.000E+00  0.000E+00  0.000E+00  1.08920E+03  1.140E+00  1.253E+01  8.774E-01  1.043E+00
   1    3    3     1     3    2.1055E+01  2.9176E+00   1.8138E+01  0.000E+00  0.000E+00  0.000E+00  1.08351E+03  1.094E+00  1.188E+01  7.127E-01  1.365E+00
   1    3    4     1     4    1.8138E+01  2.4789E+00   1.5659E+01  0.000E+00  0.000E+00  0.000E+00  1.07846E+03  1.048E+00  1.103E+01  6.124E-01  1.349E+00
   1    4    5     2     1    5.6587E+00  2.6687E+00   2.9900E+00  0.000E+00  0.000E+00  0.000E+00  1.07236E+03  4.214E-01  1.200E+01  7.800E-01  1.140E+00
   1    5    6     2     2    2.9900E+00  1.9597E+00   1.0303E+00  0.000E+00  0.000E+00  0.000E+00  1.06678E+03  2.661E-01  1.200E+01  6.000E-01  1.089E+00
   1    6    6     2     3    1.0303E+00  1.0303E+00   0.0000E+00  0.000E+00  0.000E+00  0.000E+00  1.06183E+03  4.010E-02  1.200E+01  6.000E-01  1.013E+00
   1    7    6     2     4    0.0000E+00  0.0000E+00   0.0000E+00  0.000E+00  0.000E+00  0.000E+00  1.05708E+03  0.000E+00  1.200E+01  6.000E-01  1.000E+00
   1    8    6     2     5    0.0000E+00  0.0000E+00   0.0000E+00  0.000E+00  0.000E+00  0.000E+00  1.05236E+03  0.000E+00  1.200E+01  6.000E-01  1.000E+00
   1    3    5     3     1    1.0000E+01  1.1616E+00   8.8384E+00  0.000E+00  0.000E+00  0.000E+00  1.07555E+03  1.909E+00  9.636E+00  7.227E-01  8.037E-01
   1    3    6     3     2    8.8384E+00  1.0518E+00   7.7866E+00  0.000E+00  0.000E+00  0.000E+00  1.07264E+03  1.727E+00  8.909E+00  6.682E-01  7.870E-01
   1    3    7     3     3    7.7866E+00  9.9807E-01   6.7885E+00  0.000E+00  0.000E+00  0.000E+00  1.06987E+03  1.555E+00  8.218E+00  5.547E-01  8.996E-01
   1    4    8     3     4    6.7885E+00  1.6817E+00   5.1068E+00  0.000E+00  0.000E+00  0.000E+00  1.06682E+03  1.364E+00  7.455E+00  6.709E-01  1.253E+00
   1    5    8     3     5    5.1068E+00  1.5790E+00   3.5278E+00  0.000E+00  0.000E+00  0.000E+00  1.06362E+03  1.164E+00  6.655E+00  4.991E-01  1.582E+00
   1    6    8     3     6    3.5278E+00  5.5980E-01   2.9680E+00  0.000E+00  0.000E+00  0.000E+00  1.06158E+03  1.036E+00  6.145E+00  1.844E-01  1.518E+00
   1    5   10     4     1    1.0000E+01  9.0525E-01   9.0947E+00  0.000E+00  0.000E+00  0.000E+00  1.07835E+03  6.210E-01  1.000E+01  2.500E-01  1.207E+00
   1    5    9     4     2    9.0947E+00  1.7835E+00   7.3113E+00  0.000E+00  0.000E+00  0.000E+00  1.07148E+03  5.670E-01  1.000E+01  5.000E-01  1.189E+00
   1    6    8     4     3    7.3113E+00  1.2257E+00   6.0855E+00  0.000E+00  0.000E+00  0.000E+00  1.06368E+03  5.021E-01  1.000E+01  3.500E-01  1.167E+00
   1    6    8     5     1    9.0536E+00  4.7572E-01   8.5779E+00  0.000E+00  0.000E+00  0.000E+00  1.05864E+03  6.426E-01  1.403E+01  5.610E-01  2.826E-01
   1    7    7     5     2    8.5779E+00  1.5376E+00   7.0403E+00  0.000E+00  0.000E+00  0.000E+00  1.05412E+03  6.159E-01  1.304E+01  6.521E-01  7.860E-01
   1    8    7     5     3    7.0403E+00  1.1441E+00   5.8962E+00  0.000E+00  0.000E+00  0.000E+00  1.04983E+03  5.766E-01  1.165E+01  4.077E-01  9.354E-01
   1    8    6     5     4    5.8962E+00  9.2894E-01   4.9673E+00  0.000E+00  0.000E+00  0.000E+00  1.04679E+03  5.424E-01  1.049E+01  2.622E-01  1.181E+00
   1    9    6     6     1    4.9673E+00  2.0420E+00   2.9252E+00  0.000E+00  0.000E+00  0.000E+00  1.04313E+03  4.033E-01  1.200E+01  6.000E-01  1.134E+00
   1   10    7     6     2    2.9252E+00  1.3955E+00   1.5298E+00  0.000E+00  0.000E+00  0.000E+00  1.03847E+03  2.862E-01  1.200E+01  6.000E-01  7.753E-01
   1   11    7     6     3    1.5298E+00  1.5298E+00   0.0000E+00  0.000E+00  0.000E+00  0.000E+00  1.03369E+03  5.140E-02  1.200E+01  6.000E-01  9.088E-01
   1   12    7     6     4    0.0000E+00  0.0000E+00   0.0000E+00  0.000E+00  0.000E+00  0.000E+00  1.02909E+03  0.000E+00  1.200E+01  6.000E-01  7.106E-01
   1   13    7     6     5    0.0000E+00 -7.9908E-01   7.9908E-01  0.000E+00  0.000E+00  0.000E+00  1.02601E+03  1.021E-01  1.200E+01  2.400E-01 -1.110E+00
   1   14    9     7     1    1.5000E+02  1.8645E+00   1.4814E+02  0.000E+00  0.000E+00  0.000E+00  1.03987E+03  2.286E+00  5.529E+01  5.592E+00  1.111E-01
   1   13    8     7     2    1.4814E+02  1.9088E+00   1.4623E+02  0.000E+00  0.000E+00  0.000E+00  1.03478E+03  2.276E+00  5.524E+01  6.146E+00  1.035E-01
   1   13    7     7     3    1.4623E+02  1.9242E+00   1.4430E+02  0.000E+00  0.000E+00  0.000E+00  1.02969E+03  2.266E+00  5.520E+01  5.582E+00  1.149E-01
   1   13    6     8     1    1.4510E+02  6.2596E-01   1.4448E+02  0.000E+00  0.000E+00  0.000E+00  1.02465E+03  2.780E+00  4.031E+01  4.107E+00  5.080E-02
   1   13    5     8     2    1.4448E+02 -3.7854E-01   1.4485E+02  0.000E+00  0.000E+00  0.000E+00  1.01840E+03  2.779E+00  4.029E+01  4.106E+00 -3.073E-02
   1   13    4     8     3    1.4485E+02 -1.2007E+00   1.4605E+02  0.000E+00  0.000E+00  0.000E+00  1.01216E+03  2.785E+00  4.038E+01  4.114E+00 -9.728E-02
   1   13    3     8     4    1.4605E+02 -1.8593E+00   1.4791E+02  0.000E+00  0.000E+00  0.000E+00  1.00592E+03  2.795E+00  4.053E+01  4.131E+00 -1.500E-01
   1   13    2     8     5    1.4791E+02 -1.7359E+00   1.4965E+02  0.000E+00  0.000E+00  0.000E+00  9.99683E+02  2.808E+00  4.072E+01  4.149E+00 -1.394E-01
   1   13    1     8     6    1.4965E+02 -1.7562E+00   1.5141E+02  0.000E+00  0.000E+00  0.000E+00  9.94696E+02  2.821E+00  4.090E+01  2.501E+00 -2.341E-01



 UBDSV3 SAVING "           GW ET" ON UNIT  61 AT TIME STEP 10, STRESS PERIOD   3
 UBDSV3 SAVING "    UZF RECHARGE" ON UNIT  61 AT TIME STEP 10, STRESS PERIOD   3
 UBDSV3 SAVING " SURFACE LEAKAGE" ON UNIT  61 AT TIME STEP 10, STRESS PERIOD   3
 UBDSV3 SAVING "       HORT+DUNN" ON UNIT  61 AT TIME STEP 10, STRESS PERIOD   3
 UBDSV3 SAVING "  STORAGE CHANGE" ON UNIT  61 AT TIME STEP 10, STRESS PERIOD   3


UNSATURATED ZONE PACKAGE VOLUMETRIC BUDGET FOR  TIME STEP    10 STRESS PERIOD    3
  ------------------------------------------------------------------------------



     CUMULATIVE VOLUMES      L**3       RATES FOR THIS TIME STEP      L**3/T
     ------------------                 ------------------------

           IN:                                      IN:
           ---                                      ---
        INFILTRATION =   312170964.2656          INFILTRATION =          84.7500

          OUT:                                     OUT:
          ----                                     ----
              UZF ET =       0.0000E+00                UZF ET =       0.0000E+00
        UZF RECHARGE =    71967339.4231          UZF RECHARGE =          19.0500

            IN - OUT =   240203624.8425              IN - OUT =          65.7000

          STORAGE:                                 STORAGE:
          --------                                 --------
      STORAGE CHANGE =   240181143.2156        STORAGE CHANGE =          65.6941

 PERCENT DISCREPANCY IS DIFFERENCE BETWEEN IN-OUT MINUS CHANGE IN STORAGE
 DIVIDED BY THE AVERAGE OF IN AND OUT TIMES 100

 PERCENT DISCREPANCY =           0.00     PERCENT DISCREPANCY =           0.01






1
  VOLUMETRIC BUDGET FOR ENTIRE MODEL AT END OF TIME STEP   10, STRESS PERIOD   3
  ------------------------------------------------------------------------------

     CUMULATIVE VOLUMES      L**3       RATES FOR THIS TIME STEP      L**3/T
     ------------------                 ------------------------

           IN:                                      IN:
           ---                                      ---
             STORAGE     =      171940.7344               STORAGE     =       2.2831E-02
       CONSTANT HEAD     =           0.0000         CONSTANT HEAD     =           0.0000
               WELLS     =           0.0000                 WELLS     =           0.0000
     HEAD DEP BOUNDS     =     1365634.1250       HEAD DEP BOUNDS     =           0.2077
      STREAM LEAKAGE     =   271764480.0000        STREAM LEAKAGE     =          41.3234
        UZF RECHARGE     =    71967360.0000          UZF RECHARGE     =          19.0500
               GW ET     =           0.0000                 GW ET     =           0.0000
     SURFACE LEAKAGE     =           0.0000       SURFACE LEAKAGE     =           0.0000

                TOTAL IN =   345269408.0000                  TOTAL IN =          60.6040

          OUT:                                     OUT:
          ----                                     ----
             STORAGE     =    28257536.0000               STORAGE     =          19.3526
       CONSTANT HEAD     =           0.0000         CONSTANT HEAD     =           0.0000
               WELLS     =   118302320.0000                 WELLS     =          10.0000
     HEAD DEP BOUNDS     =     1844365.8750       HEAD DEP BOUNDS     =           0.2811
      STREAM LEAKAGE     =    45810772.0000        STREAM LEAKAGE     =           7.7297
        UZF RECHARGE     =           0.0000          UZF RECHARGE     =           0.0000
               GW ET     =   151053392.0000                 GW ET     =          23.2400
     SURFACE LEAKAGE     =           0.0000       SURFACE LEAKAGE     =           0.0000

               TOTAL OUT =   345268384.0000                 TOTAL OUT =          60.6035

                IN - OUT =        1024.0000                  IN - OUT =       4.4250E-04

     PERCENT DISCREPANCY =           0.00         PERCENT DISCREPANCY =           0.00






         TIME SUMMARY AT END OF TIME STEP   10 IN STRESS PERIOD    3
                    SECONDS     MINUTES      HOURS       DAYS        YEARS
                    -----------------------------------------------------------
   TIME STEP LENGTH 1.95033E+05  3250.6      54.176      2.2573     6.18023E-03
 STRESS PERIOD TIME 1.31823E+06  21971.      366.18      15.257     4.17723E-02
         TOTAL TIME 6.57423E+06 1.09571E+05  1826.2      76.091     0.20832    
1
 
 SOLVING FOR HEAD 
                                                   Max.-Head-Change                         Max.-Flux-Residual
  Residual-Control   Outer-Iter.   Inner-Iter.     Column Row Layer    Maximum-Head-Change  Column Row Layer    Maximum-Flux-Residual          L2-NORM 
          0                 1           2             6    3     1       0.6336228479E-01       7   11    1         0.1118882344E+01      0.3488008578E+01
          0                 2           2             6    3     1       0.2507208357E-01       6    3    1         0.2865589681E+00      0.5346284071E+00
          0                 3           2             6    3     1       0.9915111369E-02       6    3    1         0.1133230685E+00      0.1719723418E+00
          0                 4           2             6    3     1       0.3919626701E-02       6    3    1         0.4481547974E-01      0.6484331255E-01
          0                 5           2             6    3     1       0.1549057613E-02       6    3    1         0.1771474050E-01      0.2493032472E-01
          0                 6           1             6    3     1       0.6120510893E-03       6    3    1         0.7000623918E-02      0.9652200037E-02
          0                 7           1             6    3     1       0.2417803917E-03       6    3    1         0.2765898654E-02      0.3754362236E-02
          0                 8           1             6    3     1       0.9549501676E-04       6    3    1         0.1092579337E-02      0.1466017856E-02

    ------------------------------------------------
       NWT REQUIRED            8 OUTER ITERATIONS 
       AND A TOTAL OF         13 INNER ITERATIONS.
    ------------------------------------------------

 NO OUTPUT CONTROL FOR STRESS PERIOD    3   TIME STEP   11
 
 SOLVING FOR HEAD 
                                                   Max.-Head-Change                         Max.-Flux-Residual
  Residual-Control   Outer-Iter.   Inner-Iter.     Column Row Layer    Maximum-Head-Change  Column Row Layer    Maximum-Flux-Residual          L2-NORM 
          0                 1           2             7   11     1       0.6167448330E-01       7   11    1         0.1214388303E+01      0.3460519877E+01
          0                 2           2             6    3     1       0.2362199683E-01       6    3    1         0.2471946074E+00      0.4807139007E+00
          0                 3           2             6    3     1       0.9258283599E-02       6    3    1         0.9688722790E-01      0.1487607022E+00
          0                 4           2             6    3     1       0.3627079690E-02       6    3    1         0.3797333949E-01      0.5529203078E-01
          0                 5           2             6    3     1       0.1420498536E-02       6    3    1         0.1487506279E-01      0.2102332056E-01
          0                 6           1             6    3     1       0.5561693154E-03       6    3    1         0.5825299034E-02      0.8054651750E-02
          0                 7           1             6    3     1       0.2177080001E-03       6    3    1         0.2280661257E-02      0.3101315610E-02
          0                 8           1             6    3     1       0.8520355009E-04       6    3    1         0.8927071049E-03      0.1199097619E-02

    ------------------------------------------------
       NWT REQUIRED            8 OUTER ITERATIONS 
       AND A TOTAL OF         13 INNER ITERATIONS.
    ------------------------------------------------

 NO OUTPUT CONTROL FOR STRESS PERIOD    3   TIME STEP   12
 
 SOLVING FOR HEAD 
                                                   Max.-Head-Change                         Max.-Flux-Residual
  Residual-Control   Outer-Iter.   Inner-Iter.     Column Row Layer    Maximum-Head-Change  Column Row Layer    Maximum-Flux-Residual          L2-NORM 
          0                 1           2             7   11     1       0.6309076055E-01       7   11    1         0.1165361416E+01      0.3395704298E+01
          0                 2           2             6    3     1       0.2194840979E-01       6    3    1         0.2104220464E+00      0.4440081939E+00
          0                 3           2             6    3     1       0.8518644794E-02       6    3    1         0.8167689684E-01      0.1280630461E+00
          0                 4           2             6    3     1       0.3304586509E-02       6    3    1         0.3169991680E-01      0.4664604406E-01
          0                 5           2             6    3     1       0.1281440999E-02       6    3    1         0.1229563058E-01      0.1751119867E-01
          0                 6           1             6    3     1       0.4967586730E-03       6    3    1         0.4767645312E-02      0.6631629067E-02
          0                 7           1             6    3     1       0.1925215347E-03       6    3    1         0.1848091574E-02      0.2524825043E-02
          0                 8           1             6    3     1       0.7459628897E-04       6    3    1         0.7162016032E-03      0.9656580165E-03

    ------------------------------------------------
       NWT REQUIRED            8 OUTER ITERATIONS 
       AND A TOTAL OF         13 INNER ITERATIONS.
    ------------------------------------------------

 NO OUTPUT CONTROL FOR STRESS PERIOD    3   TIME STEP   13
 
 SOLVING FOR HEAD 
                                                   Max.-Head-Change                         Max.-Flux-Residual
  Residual-Control   Outer-Iter.   Inner-Iter.     Column Row Layer    Maximum-Head-Change  Column Row Layer    Maximum-Flux-Residual          L2-NORM 
          0                 1           2             7   11     1       0.6549039578E-01       7   11    1         0.1104479256E+01      0.3336628114E+01
          0                 2           2             6    3     1       0.2009109351E-01       6    3    1         0.1765814266E+00      0.4088175441E+00
          0                 3           2             6    3     1       0.7715142741E-02       6    3    1         0.6782078385E-01      0.1091565214E+00
          0                 4           2             6    3     1       0.2960886214E-02       6    3    1         0.2604263431E-01      0.3883151073E-01
          0                 5           2             6    3     1       0.1135815262E-02       6    3    1         0.9993089478E-02      0.1436996651E-01
          0                 6           1             6    3     1       0.4355508036E-03       6    3    1         0.3833120508E-02      0.5372582423E-02
          0                 7           1             6    3     1       0.1669707983E-03       6    3    1         0.1469778904E-02      0.2020525142E-02
          0                 8           1             6    3     1       0.6399300261E-04       6    3    1         0.5634147929E-03      0.7635400788E-03

    ------------------------------------------------
       NWT REQUIRED            8 OUTER ITERATIONS 
       AND A TOTAL OF         13 INNER ITERATIONS.
    ------------------------------------------------

 NO OUTPUT CONTROL FOR STRESS PERIOD    3   TIME STEP   14
 
 SOLVING FOR HEAD 
                                                   Max.-Head-Change                         Max.-Flux-Residual
  Residual-Control   Outer-Iter.   Inner-Iter.     Column Row Layer    Maximum-Head-Change  Column Row Layer    Maximum-Flux-Residual          L2-NORM 
          0                 1           2             7   11     1       0.6762309902E-01       7   11    1         0.1041532838E+01      0.3280771715E+01
          0                 2           2             6    3     1       0.1809998104E-01       6    3    1         0.1459414571E+00      0.3769653189E+00
          0                 3           2             6    3     1       0.6870417320E-02       6    3    1         0.5541277674E-01      0.9194904902E-01
          0                 4           2             6    3     1       0.2605988331E-02       6    3    1         0.2103214050E-01      0.3184153662E-01
          0                 5           1             6    3     1       0.9879562079E-03       6    3    1         0.7976248170E-02      0.1160375430E-01
          0                 6           1             6    3     1       0.3743899639E-03       6    3    1         0.3023601955E-02      0.4278610965E-02
          0                 7           1             6    3     1       0.1418280155E-03       6    3    1         0.1145709327E-02      0.1587709587E-02
          0                 8           1             6    3     1       0.5371234400E-04       6    3    1         0.4339930385E-03      0.5921217855E-03

    ------------------------------------------------
       NWT REQUIRED            8 OUTER ITERATIONS 
       AND A TOTAL OF         12 INNER ITERATIONS.
    ------------------------------------------------

 OUTPUT CONTROL FOR STRESS PERIOD    3   TIME STEP   15
    PRINT BUDGET
    PRINT HEAD FOR ALL LAYERS
    SAVE HEAD FOR ALL LAYERS
    SAVE BUDGET

            WELLS   PERIOD    3   STEP  15
 WELL      1   LAYER   1   ROW     6   COL     4   RATE    -1.00000    
 WELL      2   LAYER   1   ROW     6   COL     5   RATE    -1.00000    
 WELL      3   LAYER   1   ROW     7   COL     4   RATE    -1.00000    
 WELL      4   LAYER   1   ROW     7   COL     5   RATE    -1.00000    
 WELL      5   LAYER   1   ROW     8   COL     4   RATE    -1.00000    
 WELL      6   LAYER   1   ROW     8   COL     5   RATE    -1.00000    
 WELL      7   LAYER   1   ROW     9   COL     4   RATE    -1.00000    
 WELL      8   LAYER   1   ROW     9   COL     5   RATE    -1.00000    
 WELL      9   LAYER   1   ROW    10   COL     4   RATE    -1.00000    
 WELL     10   LAYER   1   ROW    10   COL     5   RATE    -1.00000    

  HEAD DEP BOUNDS   PERIOD    3   STEP    15
 BOUNDARY      1   LAYER   1   ROW    13   COL     1   RATE   -0.282642    
 BOUNDARY      2   LAYER   1   ROW    14   COL     9   RATE    0.207718    



 STREAM LISTING     PERIOD      3   STEP       15

 LAYER ROW COL. STREAM  RCH.  FLOW INTO     FLOW TO   FLOW OUT OF   OVRLND.     DIRECT     STREAM       STREAM     STREAM     STREAM   STREAMBED  STREAMBED
                SEG.NO.  NO.  STRM. RCH.    AQUIFER    STRM. RCH.    RUNOFF     PRECIP       ET          HEAD       DEPTH      WIDTH   CONDCTNC.   GRADIENT

   1    1    1     1     1    2.5000E+01  1.1997E+00   2.3800E+01  0.000E+00  0.000E+00  0.000E+00  1.09422E+03  1.171E+00  1.294E+01  5.824E-01  6.866E-01
   1    2    2     1     2    2.3800E+01  2.7439E+00   2.1056E+01  0.000E+00  0.000E+00  0.000E+00  1.08920E+03  1.140E+00  1.253E+01  8.774E-01  1.042E+00
   1    3    3     1     3    2.1056E+01  2.9177E+00   1.8139E+01  0.000E+00  0.000E+00  0.000E+00  1.08351E+03  1.094E+00  1.188E+01  7.128E-01  1.365E+00
   1    3    4     1     4    1.8139E+01  2.4790E+00   1.5660E+01  0.000E+00  0.000E+00  0.000E+00  1.07846E+03  1.048E+00  1.104E+01  6.125E-01  1.349E+00
   1    4    5     2     1    5.6597E+00  2.6687E+00   2.9910E+00  0.000E+00  0.000E+00  0.000E+00  1.07236E+03  4.215E-01  1.200E+01  7.800E-01  1.140E+00
   1    5    6     2     2    2.9910E+00  1.9597E+00   1.0313E+00  0.000E+00  0.000E+00  0.000E+00  1.06678E+03  2.662E-01  1.200E+01  6.000E-01  1.089E+00
   1    6    6     2     3    1.0313E+00  1.0313E+00   0.0000E+00  0.000E+00  0.000E+00  0.000E+00  1.06183E+03  4.012E-02  1.200E+01  6.000E-01  1.013E+00
   1    7    6     2     4    0.0000E+00  0.0000E+00   0.0000E+00  0.000E+00  0.000E+00  0.000E+00  1.05708E+03  0.000E+00  1.200E+01  6.000E-01  1.000E+00
   1    8    6     2     5    0.0000E+00  0.0000E+00   0.0000E+00  0.000E+00  0.000E+00  0.000E+00  1.05236E+03  0.000E+00  1.200E+01  6.000E-01  1.000E+00
   1    3    5     3     1    1.0000E+01  8.9667E-01   9.1033E+00  0.000E+00  0.000E+00  0.000E+00  1.07555E+03  1.909E+00  9.636E+00  7.227E-01  6.203E-01
   1    3    6     3     2    9.1033E+00  7.4594E-01   8.3574E+00  0.000E+00  0.000E+00  0.000E+00  1.07264E+03  1.727E+00  8.909E+00  6.682E-01  5.582E-01
   1    3    7     3     3    8.3574E+00  7.5796E-01   7.5994E+00  0.000E+00  0.000E+00  0.000E+00  1.06987E+03  1.555E+00  8.218E+00  5.547E-01  6.832E-01
   1    4    8     3     4    7.5994E+00  1.6787E+00   5.9208E+00  0.000E+00  0.000E+00  0.000E+00  1.06682E+03  1.364E+00  7.455E+00  6.709E-01  1.251E+00
   1    5    8     3     5    5.9208E+00  1.5790E+00   4.3418E+00  0.000E+00  0.000E+00  0.000E+00  1.06362E+03  1.164E+00  6.655E+00  4.991E-01  1.582E+00
   1    6    8     3     6    4.3418E+00  5.5980E-01   3.7820E+00  0.000E+00  0.000E+00  0.000E+00  1.06158E+03  1.036E+00  6.145E+00  1.844E-01  1.518E+00
   1    5   10     4     1    1.0000E+01  9.0525E-01   9.0947E+00  0.000E+00  0.000E+00  0.000E+00  1.07835E+03  6.210E-01  1.000E+01  2.500E-01  1.207E+00
   1    5    9     4     2    9.0947E+00  1.7835E+00   7.3113E+00  0.000E+00  0.000E+00  0.000E+00  1.07148E+03  5.670E-01  1.000E+01  5.000E-01  1.189E+00
   1    6    8     4     3    7.3113E+00  1.2257E+00   6.0855E+00  0.000E+00  0.000E+00  0.000E+00  1.06368E+03  5.021E-01  1.000E+01  3.500E-01  1.167E+00
   1    6    8     5     1    9.8675E+00  4.9679E-01   9.3707E+00  0.000E+00  0.000E+00  0.000E+00  1.05866E+03  6.625E-01  1.478E+01  5.912E-01  2.801E-01
   1    7    7     5     2    9.3707E+00  1.5913E+00   7.7794E+00  0.000E+00  0.000E+00  0.000E+00  1.05414E+03  6.364E-01  1.380E+01  6.898E-01  7.690E-01
   1    8    7     5     3    7.7794E+00  1.1985E+00   6.5809E+00  0.000E+00  0.000E+00  0.000E+00  1.04985E+03  5.981E-01  1.240E+01  4.340E-01  9.204E-01
   1    8    6     5     4    6.5809E+00  1.0002E+00   5.5807E+00  0.000E+00  0.000E+00  0.000E+00  1.04681E+03  5.643E-01  1.122E+01  2.806E-01  1.188E+00
   1    9    6     6     1    5.5807E+00  2.0636E+00   3.5172E+00  0.000E+00  0.000E+00  0.000E+00  1.04317E+03  4.393E-01  1.200E+01  6.000E-01  1.146E+00
   1   10    7     6     2    3.5172E+00  1.4028E+00   2.1144E+00  0.000E+00  0.000E+00  0.000E+00  1.03851E+03  3.294E-01  1.200E+01  6.000E-01  7.794E-01
   1   11    7     6     3    2.1144E+00  1.5332E+00   5.8118E-01  0.000E+00  0.000E+00  0.000E+00  1.03385E+03  2.117E-01  1.200E+01  6.000E-01  8.518E-01
   1   12    7     6     4    5.8118E-01  5.8118E-01   0.0000E+00  0.000E+00  0.000E+00  0.000E+00  1.02912E+03  2.876E-02  1.200E+01  6.000E-01  6.848E-01
   1   13    7     6     5    0.0000E+00 -8.1170E-01   8.1170E-01  0.000E+00  0.000E+00  0.000E+00  1.02601E+03  1.030E-01  1.200E+01  2.400E-01 -1.127E+00
   1   14    9     7     1    1.5000E+02  1.8637E+00   1.4814E+02  0.000E+00  0.000E+00  0.000E+00  1.03987E+03  2.286E+00  5.529E+01  5.592E+00  1.111E-01
   1   13    8     7     2    1.4814E+02  1.9028E+00   1.4623E+02  0.000E+00  0.000E+00  0.000E+00  1.03478E+03  2.276E+00  5.524E+01  6.146E+00  1.032E-01
   1   13    7     7     3    1.4623E+02  1.6300E+00   1.4460E+02  0.000E+00  0.000E+00  0.000E+00  1.02969E+03  2.267E+00  5.520E+01  5.583E+00  9.733E-02
   1   13    6     8     1    1.4542E+02  3.3868E-01   1.4508E+02  0.000E+00  0.000E+00  0.000E+00  1.02466E+03  2.783E+00  4.035E+01  4.112E+00  2.745E-02
   1   13    5     8     2    1.4508E+02 -4.5923E-01   1.4554E+02  0.000E+00  0.000E+00  0.000E+00  1.01841E+03  2.783E+00  4.036E+01  4.113E+00 -3.722E-02
   1   13    4     8     3    1.4554E+02 -1.2878E+00   1.4682E+02  0.000E+00  0.000E+00  0.000E+00  1.01216E+03  2.790E+00  4.045E+01  4.122E+00 -1.041E-01
   1   13    3     8     4    1.4682E+02 -1.9539E+00   1.4878E+02  0.000E+00  0.000E+00  0.000E+00  1.00593E+03  2.801E+00  4.062E+01  4.139E+00 -1.574E-01
   1   13    2     8     5    1.4878E+02 -1.7397E+00   1.5052E+02  0.000E+00  0.000E+00  0.000E+00  9.99689E+02  2.814E+00  4.081E+01  4.158E+00 -1.394E-01
   1   13    1     8     6    1.5052E+02 -1.8446E+00   1.5236E+02  0.000E+00  0.000E+00  0.000E+00  9.94702E+02  2.827E+00  4.099E+01  2.506E+00 -2.453E-01



 UBDSV3 SAVING "           GW ET" ON UNIT  61 AT TIME STEP 15, STRESS PERIOD   3
 UBDSV3 SAVING "    UZF RECHARGE" ON UNIT  61 AT TIME STEP 15, STRESS PERIOD   3
 UBDSV3 SAVING " SURFACE LEAKAGE" ON UNIT  61 AT TIME STEP 15, STRESS PERIOD   3
 UBDSV3 SAVING "       HORT+DUNN" ON UNIT  61 AT TIME STEP 15, STRESS PERIOD   3
 UBDSV3 SAVING "  STORAGE CHANGE" ON UNIT  61 AT TIME STEP 15, STRESS PERIOD   3


UNSATURATED ZONE PACKAGE VOLUMETRIC BUDGET FOR  TIME STEP    15 STRESS PERIOD    3
  ------------------------------------------------------------------------------



     CUMULATIVE VOLUMES      L**3       RATES FOR THIS TIME STEP      L**3/T
     ------------------                 ------------------------

           IN:                                      IN:
           ---                                      ---
        INFILTRATION =   423173665.3594          INFILTRATION =          84.7500

          OUT:                                     OUT:
          ----                                     ----
              UZF ET =       0.0000E+00                UZF ET =       0.0000E+00
        UZF RECHARGE =    97400814.2410          UZF RECHARGE =          19.3014

            IN - OUT =   325772851.1184              IN - OUT =          65.4486

          STORAGE:                                 STORAGE:
          --------                                 --------
      STORAGE CHANGE =   325747615.7495        STORAGE CHANGE =          65.4486

 PERCENT DISCREPANCY IS DIFFERENCE BETWEEN IN-OUT MINUS CHANGE IN STORAGE
 DIVIDED BY THE AVERAGE OF IN AND OUT TIMES 100

 PERCENT DISCREPANCY =           0.00     PERCENT DISCREPANCY =           0.00






1
              HEAD IN LAYER   1 AT END OF TIME STEP  15 IN STRESS PERIOD    3
  ---------------------------------------------------------------------------

           1       2       3       4       5       6       7       8       9      10
 ...................................................................................
   1  1092.16 1087.66 6999.00 6999.00 6999.00 6999.00 6999.00 6999.00 6999.00 6999.00
   2  1087.74 1086.07 1078.13 6999.00 6999.00 1069.46 1069.27 1068.70 6999.00 6999.00
   3  6999.00 1074.76 1078.36 1073.68 1074.30 1071.52 1068.51 1065.88 6999.00 6999.00
   4  1065.89 1065.84 1064.69 1063.34 1065.86 1061.13 1059.55 1064.32 1062.05 6999.00
   5  1062.53 1059.27 1055.52 1053.11 1055.34 1060.23 1057.00 1060.29 1064.11 1065.48
   6  1058.73 1054.03 1049.37 1037.63 1041.01 1052.68 1053.78 1057.82 1057.58 1063.15
   7  1055.86 1048.97 1043.90 1028.86 1032.84 1045.35 1051.83 1052.49 1053.29 6999.00
   8  6999.00 1043.00 1039.17 1025.00 1028.63 1042.52 1047.09 1047.29 1049.78 6999.00
   9  6999.00 1037.08 1034.35 1021.20 1025.33 1039.59 1039.92 1041.41 1045.48 6999.00
  10  6999.00 1031.22 1029.83 1019.34 1022.06 1031.90 1036.17 1037.10 1041.76 1046.49
  11  6999.00 1023.71 1024.15 1023.69 1025.36 1028.53 1031.29 1033.69 1037.81 6999.00
  12  1006.68 1013.33 1015.68 1019.25 1021.97 1024.90 1027.07 1030.03 1035.16 6999.00
  13   995.44 1000.11 1006.40 1012.48 1018.52 1024.58 1029.39 1034.47 1035.78 6999.00
  14  6999.00 1012.46 1017.21 1021.75 1025.60 1028.76 1031.43 1034.74 1039.53 6999.00
  15  6999.00 6999.00 1026.36 1028.59 1031.16 1032.89 6999.00 6999.00 6999.00 6999.00
1
              HEAD IN LAYER   2 AT END OF TIME STEP  15 IN STRESS PERIOD    3
  ---------------------------------------------------------------------------

           1       2       3       4       5       6       7       8       9      10
 ...................................................................................
   1  1090.99 1087.08 6999.00 6999.00 6999.00 6999.00 6999.00 6999.00 6999.00 6999.00
   2  1087.48 1080.64 1075.22 6999.00 6999.00 1068.91 1068.78 1068.34 6999.00 6999.00
   3  6999.00 1072.54 1067.86 1064.09 1063.68 1064.44 1065.00 1065.37 6999.00 6999.00
   4  1065.18 1065.04 1062.04 1058.58 1057.19 1056.74 1058.12 1061.46 1061.63 6999.00
   5  1061.80 1058.48 1055.23 1053.10 1052.84 1053.22 1053.64 1055.58 1059.64 1063.68
   6  1058.04 1053.38 1049.56 1047.81 1048.09 1049.46 1050.87 1052.85 1056.66 1062.81
   7  1055.14 1048.39 1044.41 1042.89 1043.59 1045.35 1047.42 1050.04 1053.13 6999.00
   8  6999.00 1042.59 1039.61 1038.44 1039.31 1041.14 1043.14 1046.91 1049.45 6999.00
   9  6999.00 1036.59 1034.72 1034.13 1035.16 1037.01 1038.59 1041.20 1045.13 6999.00
  10  6999.00 1030.75 1030.10 1030.40 1031.63 1033.37 1034.73 1036.90 1041.31 1046.49
  11  6999.00 1023.79 1024.77 1027.11 1028.75 1030.50 1031.95 1033.77 1037.48 6999.00
  12  1006.96 1014.60 1019.56 1023.34 1025.98 1028.22 1029.86 1031.41 1035.08 6999.00
  13  1000.25 1007.66 1015.58 1020.80 1024.30 1027.19 1029.73 1032.48 1035.33 6999.00
  14  6999.00 1012.72 1017.51 1021.97 1025.59 1028.58 1031.06 1034.26 1036.86 6999.00
  15  6999.00 6999.00 1026.36 1028.59 1030.70 1032.43 6999.00 6999.00 6999.00 6999.00

 HEAD WILL BE SAVED ON UNIT   58 AT END OF TIME STEP   15, STRESS PERIOD    3
1
  VOLUMETRIC BUDGET FOR ENTIRE MODEL AT END OF TIME STEP   15, STRESS PERIOD   3
  ------------------------------------------------------------------------------

     CUMULATIVE VOLUMES      L**3       RATES FOR THIS TIME STEP      L**3/T
     ------------------                 ------------------------

           IN:                                      IN:
           ---                                      ---
             STORAGE     =      192487.7031               STORAGE     =       1.2607E-02
       CONSTANT HEAD     =           0.0000         CONSTANT HEAD     =           0.0000
               WELLS     =           0.0000                 WELLS     =           0.0000
     HEAD DEP BOUNDS     =     1637699.6250       HEAD DEP BOUNDS     =           0.2077
      STREAM LEAKAGE     =   325427360.0000        STREAM LEAKAGE     =          40.7352
        UZF RECHARGE     =    97400832.0000          UZF RECHARGE     =          19.3014
               GW ET     =           0.0000                 GW ET     =           0.0000
     SURFACE LEAKAGE     =           0.0000       SURFACE LEAKAGE     =           0.0000

                TOTAL IN =   424658368.0000                  TOTAL IN =          60.2570

          OUT:                                     OUT:
          ----                                     ----
             STORAGE     =    53136148.0000               STORAGE     =          18.4508
       CONSTANT HEAD     =           0.0000         CONSTANT HEAD     =           0.0000
               WELLS     =   131399984.0000                 WELLS     =          10.0000
     HEAD DEP BOUNDS     =     2213807.2500       HEAD DEP BOUNDS     =           0.2826
      STREAM LEAKAGE     =    56260004.0000        STREAM LEAKAGE     =           8.0970
        UZF RECHARGE     =           0.0000          UZF RECHARGE     =           0.0000
               GW ET     =   181646560.0000                 GW ET     =          23.4261
     SURFACE LEAKAGE     =           0.0000       SURFACE LEAKAGE     =           0.0000

               TOTAL OUT =   424656512.0000                 TOTAL OUT =          60.2565

                IN - OUT =        1856.0000                  IN - OUT =       4.1580E-04

     PERCENT DISCREPANCY =           0.00         PERCENT DISCREPANCY =           0.00






         TIME SUMMARY AT END OF TIME STEP   15 IN STRESS PERIOD    3
                    SECONDS     MINUTES      HOURS       DAYS        YEARS
                    -----------------------------------------------------------
   TIME STEP LENGTH 3.14103E+05  5235.0      87.251      3.6354     9.95332E-03
 STRESS PERIOD TIME 2.62800E+06  43800.      730.00      30.417     8.32763E-02
         TOTAL TIME 7.88400E+06 1.31400E+05  2190.0      91.250     0.24983    
1
1
                            STRESS PERIOD NO.    4, LENGTH =   2628000.    
                            -----------------------------------------------

                              NUMBER OF TIME STEPS =    15

                               MULTIPLIER FOR DELT =     1.100

                            INITIAL TIME STEP SIZE =   82713.07    

 WELL NO.  LAYER   ROW   COL   STRESS RATE         
 --------------------------------------------------
      1      1      6      4      -1.000    
      2      1      6      5      -1.000    
      3      1      7      4      -1.000    
      4      1      7      5      -1.000    
      5      1      8      4      -1.000    
      6      1      8      5      -1.000    
      7      1      9      4      -1.000    
      8      1      9      5      -1.000    
      9      1     10      4      -1.000    
     10      1     10      5      -1.000    

     10 WELLS

 REUSING NON-PARAMETER GHB CELLS FROM LAST STRESS PERIOD

      2 GHB CELLS

 REUSING STREAM SEGMENT DATA FROM LAST STRESS PERIOD



            AREAL INFILTRATION RATE
 READING ON UNIT   19 WITH FORMAT: (10F4.0)            

            1           2           3           4           5           6           7           8           9          10
 ........................................................................................................................
   1   2.0000E-08  4.0000E-08   0.000       0.000       0.000       0.000       0.000       0.000       0.000       0.000    
   2   4.0000E-08  2.0000E-08  4.0000E-08   0.000       0.000      1.6000E-07  1.6000E-07  1.0000E-07   0.000       0.000    
   3    0.000      1.0000E-07  2.0000E-08  2.0000E-08  1.6000E-07  1.6000E-07  1.0000E-07  1.0000E-07   0.000       0.000    
   4   1.6000E-07  1.0000E-07  2.0000E-08  2.0000E-08  2.0000E-08  2.0000E-08  2.0000E-08  2.0000E-08  4.0000E-08   0.000    
   5   1.6000E-07  1.0000E-07  2.0000E-08  2.0000E-08  2.0000E-08  2.0000E-08  2.0000E-08  2.0000E-08  2.0000E-08  2.0000E-08
   6   1.6000E-07  1.0000E-07  1.0000E-07  4.0000E-08  4.0000E-08  2.0000E-08  2.0000E-08  2.0000E-08  2.0000E-08  1.0000E-07
   7   1.6000E-07  1.0000E-07  1.0000E-07  4.0000E-08  4.0000E-08  2.0000E-08  2.0000E-08  4.0000E-08  4.0000E-08   0.000    
   8    0.000      1.0000E-07  1.0000E-07  4.0000E-08  4.0000E-08  2.0000E-08  2.0000E-08  4.0000E-08  1.0000E-07   0.000    
   9    0.000      1.0000E-07  1.0000E-07  4.0000E-08  4.0000E-08  2.0000E-08  2.0000E-08  4.0000E-08  1.0000E-07   0.000    
  10    0.000      1.0000E-07  1.0000E-07  4.0000E-08  4.0000E-08  2.0000E-08  2.0000E-08  4.0000E-08  1.0000E-07  1.6000E-07
  11    0.000      2.0000E-08  2.0000E-08  2.0000E-08  2.0000E-08  2.0000E-08  2.0000E-08  4.0000E-08  1.0000E-07   0.000    
  12   2.0000E-08  2.0000E-08  2.0000E-08  2.0000E-08  2.0000E-08  2.0000E-08  2.0000E-08  2.0000E-08  4.0000E-08   0.000    
  13   2.0000E-08  2.0000E-08  4.0000E-08  4.0000E-08  4.0000E-08  4.0000E-08  4.0000E-08  2.0000E-08  2.0000E-08   0.000    
  14    0.000      4.0000E-08  1.0000E-07  1.0000E-07  1.0000E-07  1.0000E-07  1.0000E-07  4.0000E-08  2.0000E-08   0.000    
  15    0.000       0.000      1.6000E-07  1.6000E-07  1.6000E-07  1.6000E-07   0.000       0.000       0.000       0.000    

USING ET RATE FROM PREVIOUS STRESS PERIOD. CURRENT PERIOD IS:       4

 USING ET EXTINCTION DEPTH FROM PREVIOUS STRESS PERIOD. CURRENT PERIOD IS:       4

 USING EXTINCTION WATER CONTENT FROM PREVIOUS STRESS PERIOD. CURRENT PERIOD IS:       4
 
 SOLVING FOR HEAD 
                                                   Max.-Head-Change                         Max.-Flux-Residual
  Residual-Control   Outer-Iter.   Inner-Iter.     Column Row Layer    Maximum-Head-Change  Column Row Layer    Maximum-Flux-Residual          L2-NORM 
          0                 1           2             7   11     1       0.1748420111E-01       7   11    1         0.9770043826E+00      0.3234097500E+01
          0                 2           2             6    3     1       0.4657959457E-02       6    3    1         0.1319570239E+00      0.3429566787E+00
          0                 3           2             6    3     1       0.1949594930E-02       6    3    1         0.5522042296E-01      0.8785585677E-01
          0                 4           1             6    3     1       0.8158535830E-03       6    3    1         0.2311362217E-01      0.3380450437E-01
          0                 5           1             6    3     1       0.3413669458E-03       6    3    1         0.9671902420E-02      0.1361041537E-01
          0                 6           1             6    3     1       0.1428182967E-03       6    3    1         0.4046810734E-02      0.5541801765E-02
          0                 7           1             6    3     1       0.5974580821E-04       6    3    1         0.1693035464E-02      0.2272852976E-02

    ------------------------------------------------
       NWT REQUIRED            7 OUTER ITERATIONS 
       AND A TOTAL OF         10 INNER ITERATIONS.
    ------------------------------------------------

 NO OUTPUT CONTROL FOR STRESS PERIOD    4   TIME STEP    1
 
 SOLVING FOR HEAD 
                                                   Max.-Head-Change                         Max.-Flux-Residual
  Residual-Control   Outer-Iter.   Inner-Iter.     Column Row Layer    Maximum-Head-Change  Column Row Layer    Maximum-Flux-Residual          L2-NORM 
          0                 1           2             4    7     1       0.1918308512E-01       7   11    1         0.9603109652E+00      0.3224072361E+01
          0                 2           2             6    3     1       0.4818909943E-02       6    3    1         0.1244645772E+00      0.3353800578E+00
          0                 3           2             6    3     1       0.2009735503E-02       6    3    1         0.5189914133E-01      0.8314766309E-01
          0                 4           1             6    3     1       0.8379857719E-03       6    3    1         0.2164554698E-01      0.3174129640E-01
          0                 5           1             6    3     1       0.3493559322E-03       6    3    1         0.9024846730E-02      0.1272368075E-01
          0                 6           1             6    3     1       0.1456286459E-03       6    3    1         0.3762372554E-02      0.5159363421E-02
          0                 7           1             6    3     1       0.6069904668E-04       6    3    1         0.1568303530E-02      0.2108117670E-02

    ------------------------------------------------
       NWT REQUIRED            7 OUTER ITERATIONS 
       AND A TOTAL OF         10 INNER ITERATIONS.
    ------------------------------------------------

 NO OUTPUT CONTROL FOR STRESS PERIOD    4   TIME STEP    2
 
 SOLVING FOR HEAD 
                                                   Max.-Head-Change                         Max.-Flux-Residual
  Residual-Control   Outer-Iter.   Inner-Iter.     Column Row Layer    Maximum-Head-Change  Column Row Layer    Maximum-Flux-Residual          L2-NORM 
          0                 1           2             4    7     1       0.2106818931E-01       4    7    1         0.9581170653E+00      0.3214061471E+01
          0                 2           2             7    3     1       0.4990298300E-02       7    3    1         0.1169523364E+00      0.3279192171E+00
          0                 3           2             6    3     1       0.2058987606E-02       6    3    1         0.4849094092E-01      0.7835210547E-01
          0                 4           1             6    3     1       0.8551264119E-03       6    3    1         0.2014464307E-01      0.2963360242E-01
          0                 5           1             6    3     1       0.3550846316E-03       6    3    1         0.8365786444E-02      0.1182053187E-01
          0                 6           1             6    3     1       0.1474259448E-03       6    3    1         0.3473740497E-02      0.4771086119E-02
          0                 7           1             6    3     1       0.6120217505E-04       6    3    1         0.1442207449E-02      0.1941058104E-02

    ------------------------------------------------
       NWT REQUIRED            7 OUTER ITERATIONS 
       AND A TOTAL OF         10 INNER ITERATIONS.
    ------------------------------------------------

 NO OUTPUT CONTROL FOR STRESS PERIOD    4   TIME STEP    3
 
 SOLVING FOR HEAD 
                                                   Max.-Head-Change                         Max.-Flux-Residual
  Residual-Control   Outer-Iter.   Inner-Iter.     Column Row Layer    Maximum-Head-Change  Column Row Layer    Maximum-Flux-Residual          L2-NORM 
          0                 1           2             4    7     1       0.2313480570E-01       4    7    1         0.9565844404E+00      0.3204065937E+01
          0                 2           2             7    3     1       0.5179804365E-02       7    3    1         0.1106888210E+00      0.3206466605E+00
          0                 3           2             6    3     1       0.2095345478E-02       6    3    1         0.4501718915E-01      0.7350306162E-01
          0                 4           1             6    3     1       0.8664550196E-03       6    3    1         0.1862108056E-01      0.2749551123E-01
          0                 5           1             6    3     1       0.3582212182E-03       6    3    1         0.7699498286E-02      0.1090746391E-01
          0                 6           1             6    3     1       0.1480776224E-03       6    3    1         0.3183135360E-02      0.4380180801E-02
          0                 7           1             6    3     1       0.6120293564E-04       6    3    1         0.1315770224E-02      0.1773306375E-02

    ------------------------------------------------
       NWT REQUIRED            7 OUTER ITERATIONS 
       AND A TOTAL OF         10 INNER ITERATIONS.
    ------------------------------------------------

 NO OUTPUT CONTROL FOR STRESS PERIOD    4   TIME STEP    4
 
 SOLVING FOR HEAD 
                                                   Max.-Head-Change                         Max.-Flux-Residual
  Residual-Control   Outer-Iter.   Inner-Iter.     Column Row Layer    Maximum-Head-Change  Column Row Layer    Maximum-Flux-Residual          L2-NORM 
          0                 1           2             5    3     1       0.8364456884E-01       5    3    1         0.1645312252E+01      0.3587966294E+01
          0                 2           2             5    3     1       0.4362031682E-01       5    3    1         0.8583684351E+00      0.9142145324E+00
          0                 3           2             5    3     1       0.2274595715E-01       5    3    1         0.4476045012E+00      0.4527015734E+00
          0                 4           2             5    3     1       0.1186051855E-01       5    3    1         0.2334051770E+00      0.2348288912E+00
          0                 5           2             5    3     1       0.6184326139E-02       5    3    1         0.1217047803E+00      0.1221980741E+00
          0                 6           1             5    3     1       0.3224578936E-02       5    3    1         0.6345928599E-01      0.6364656617E-01
          0                 7           1             5    3     1       0.1681308528E-02       5    3    1         0.3308832036E-01      0.3316506371E-01
          0                 8           1             5    3     1       0.8766313211E-03       5    3    1         0.1725235019E-01      0.1728593176E-01
          0                 9           1             5    3     1       0.4570700672E-03       5    3    1         0.8995330724E-02      0.9010892253E-02
          0                10           1             5    3     1       0.2383118468E-03       5    3    1         0.4690102971E-02      0.4697676759E-02
                                                   Max.-Head-Change                         Max.-Flux-Residual
  Residual-Control   Outer-Iter.   Inner-Iter.     Column Row Layer    Maximum-Head-Change  Column Row Layer    Maximum-Flux-Residual          L2-NORM 
          0                11           1             5    3     1       0.1242527983E-03       5    3    1         0.2445371172E-02      0.2449404870E-02
          0                12           1             5    3     1       0.6478357586E-04       5    3    1         0.1274984735E-02      0.1277353700E-02

    ------------------------------------------------
       NWT REQUIRED           12 OUTER ITERATIONS 
       AND A TOTAL OF         17 INNER ITERATIONS.
    ------------------------------------------------

 OUTPUT CONTROL FOR STRESS PERIOD    4   TIME STEP    5
    PRINT BUDGET
    SAVE BUDGET

            WELLS   PERIOD    4   STEP   5
 WELL      1   LAYER   1   ROW     6   COL     4   RATE    -1.00000    
 WELL      2   LAYER   1   ROW     6   COL     5   RATE    -1.00000    
 WELL      3   LAYER   1   ROW     7   COL     4   RATE    -1.00000    
 WELL      4   LAYER   1   ROW     7   COL     5   RATE    -1.00000    
 WELL      5   LAYER   1   ROW     8   COL     4   RATE    -1.00000    
 WELL      6   LAYER   1   ROW     8   COL     5   RATE    -1.00000    
 WELL      7   LAYER   1   ROW     9   COL     4   RATE    -1.00000    
 WELL      8   LAYER   1   ROW     9   COL     5   RATE    -1.00000    
 WELL      9   LAYER   1   ROW    10   COL     4   RATE    -1.00000    
 WELL     10   LAYER   1   ROW    10   COL     5   RATE    -1.00000    

  HEAD DEP BOUNDS   PERIOD    4   STEP     5
 BOUNDARY      1   LAYER   1   ROW    13   COL     1   RATE   -0.283043    
 BOUNDARY      2   LAYER   1   ROW    14   COL     9   RATE    0.207715    



 STREAM LISTING     PERIOD      4   STEP        5

 LAYER ROW COL. STREAM  RCH.  FLOW INTO     FLOW TO   FLOW OUT OF   OVRLND.     DIRECT     STREAM       STREAM     STREAM     STREAM   STREAMBED  STREAMBED
                SEG.NO.  NO.  STRM. RCH.    AQUIFER    STRM. RCH.    RUNOFF     PRECIP       ET          HEAD       DEPTH      WIDTH   CONDCTNC.   GRADIENT

   1    1    1     1     1    2.5000E+01  1.1996E+00   2.3800E+01  0.000E+00  0.000E+00  0.000E+00  1.09422E+03  1.171E+00  1.294E+01  5.824E-01  6.866E-01
   1    2    2     1     2    2.3800E+01  2.7434E+00   2.1057E+01  0.000E+00  0.000E+00  0.000E+00  1.08920E+03  1.140E+00  1.253E+01  8.774E-01  1.042E+00
   1    3    3     1     3    2.1057E+01  2.9177E+00   1.8139E+01  0.000E+00  0.000E+00  0.000E+00  1.08351E+03  1.094E+00  1.188E+01  7.128E-01  1.365E+00
   1    3    4     1     4    1.8139E+01  2.4790E+00   1.5660E+01  0.000E+00  0.000E+00  0.000E+00  1.07846E+03  1.048E+00  1.104E+01  6.125E-01  1.349E+00
   1    4    5     2     1    5.6602E+00  2.6688E+00   2.9914E+00  0.000E+00  0.000E+00  0.000E+00  1.07236E+03  4.215E-01  1.200E+01  7.800E-01  1.140E+00
   1    5    6     2     2    2.9914E+00  1.9597E+00   1.0317E+00  0.000E+00  0.000E+00  0.000E+00  1.06678E+03  2.662E-01  1.200E+01  6.000E-01  1.089E+00
   1    6    6     2     3    1.0317E+00  1.0317E+00   0.0000E+00  0.000E+00  0.000E+00  0.000E+00  1.06183E+03  4.013E-02  1.200E+01  6.000E-01  1.013E+00
   1    7    6     2     4    0.0000E+00  0.0000E+00   0.0000E+00  0.000E+00  0.000E+00  0.000E+00  1.05708E+03  0.000E+00  1.200E+01  6.000E-01  1.000E+00
   1    8    6     2     5    0.0000E+00  0.0000E+00   0.0000E+00  0.000E+00  0.000E+00  0.000E+00  1.05236E+03  0.000E+00  1.200E+01  6.000E-01  1.000E+00
   1    3    5     3     1    1.0000E+01  7.2531E-01   9.2747E+00  0.000E+00  0.000E+00  0.000E+00  1.07555E+03  1.909E+00  9.636E+00  7.227E-01  5.018E-01
   1    3    6     3     2    9.2747E+00  6.7803E-01   8.5967E+00  0.000E+00  0.000E+00  0.000E+00  1.07264E+03  1.727E+00  8.909E+00  6.682E-01  5.074E-01
   1    3    7     3     3    8.5967E+00  6.9758E-01   7.8991E+00  0.000E+00  0.000E+00  0.000E+00  1.06987E+03  1.555E+00  8.218E+00  5.547E-01  6.288E-01
   1    4    8     3     4    7.8991E+00  1.6773E+00   6.2218E+00  0.000E+00  0.000E+00  0.000E+00  1.06682E+03  1.364E+00  7.455E+00  6.709E-01  1.250E+00
   1    5    8     3     5    6.2218E+00  1.5790E+00   4.6428E+00  0.000E+00  0.000E+00  0.000E+00  1.06362E+03  1.164E+00  6.655E+00  4.991E-01  1.582E+00
   1    6    8     3     6    4.6428E+00  5.5980E-01   4.0830E+00  0.000E+00  0.000E+00  0.000E+00  1.06158E+03  1.036E+00  6.145E+00  1.844E-01  1.518E+00
   1    5   10     4     1    1.0000E+01  9.0525E-01   9.0947E+00  0.000E+00  0.000E+00  0.000E+00  1.07835E+03  6.210E-01  1.000E+01  2.500E-01  1.207E+00
   1    5    9     4     2    9.0947E+00  1.7835E+00   7.3113E+00  0.000E+00  0.000E+00  0.000E+00  1.07148E+03  5.670E-01  1.000E+01  5.000E-01  1.189E+00
   1    6    8     4     3    7.3113E+00  1.2257E+00   6.0855E+00  0.000E+00  0.000E+00  0.000E+00  1.06368E+03  5.021E-01  1.000E+01  3.500E-01  1.167E+00
   1    6    8     5     1    1.0169E+01  5.0357E-01   9.6650E+00  0.000E+00  0.000E+00  0.000E+00  1.05867E+03  6.697E-01  1.505E+01  6.021E-01  2.788E-01
   1    7    7     5     2    9.6650E+00  1.6082E+00   8.0568E+00  0.000E+00  0.000E+00  0.000E+00  1.05414E+03  6.438E-01  1.407E+01  7.035E-01  7.620E-01
   1    8    7     5     3    8.0568E+00  1.2162E+00   6.8406E+00  0.000E+00  0.000E+00  0.000E+00  1.04986E+03  6.058E-01  1.268E+01  4.437E-01  9.137E-01
   1    8    6     5     4    6.8406E+00  1.0266E+00   5.8140E+00  0.000E+00  0.000E+00  0.000E+00  1.04682E+03  5.722E-01  1.150E+01  2.874E-01  1.191E+00
   1    9    6     6     1    5.8140E+00  2.0714E+00   3.7426E+00  0.000E+00  0.000E+00  0.000E+00  1.04318E+03  4.524E-01  1.200E+01  6.000E-01  1.151E+00
   1   10    7     6     2    3.7426E+00  1.4040E+00   2.3385E+00  0.000E+00  0.000E+00  0.000E+00  1.03853E+03  3.449E-01  1.200E+01  6.000E-01  7.800E-01
   1   11    7     6     3    2.3385E+00  1.4822E+00   8.5635E-01  0.000E+00  0.000E+00  0.000E+00  1.03387E+03  2.344E-01  1.200E+01  6.000E-01  8.234E-01
   1   12    7     6     4    8.5635E-01  8.5635E-01   0.0000E+00  0.000E+00  0.000E+00  0.000E+00  1.02913E+03  3.629E-02  1.200E+01  6.000E-01  6.588E-01
   1   13    7     6     5    0.0000E+00 -8.1491E-01   8.1491E-01  0.000E+00  0.000E+00  0.000E+00  1.02601E+03  1.033E-01  1.200E+01  2.400E-01 -1.132E+00
   1   14    9     7     1    1.5000E+02  1.8633E+00   1.4814E+02  0.000E+00  0.000E+00  0.000E+00  1.03987E+03  2.286E+00  5.529E+01  5.592E+00  1.111E-01
   1   13    8     7     2    1.4814E+02  1.8996E+00   1.4624E+02  0.000E+00  0.000E+00  0.000E+00  1.03478E+03  2.276E+00  5.524E+01  6.146E+00  1.030E-01
   1   13    7     7     3    1.4624E+02  1.5553E+00   1.4468E+02  0.000E+00  0.000E+00  0.000E+00  1.02969E+03  2.267E+00  5.520E+01  5.583E+00  9.286E-02
   1   13    6     8     1    1.4550E+02  2.8145E-01   1.4522E+02  0.000E+00  0.000E+00  0.000E+00  1.02466E+03  2.784E+00  4.037E+01  4.113E+00  2.281E-02
   1   13    5     8     2    1.4522E+02 -4.7440E-01   1.4569E+02  0.000E+00  0.000E+00  0.000E+00  1.01841E+03  2.785E+00  4.038E+01  4.114E+00 -3.843E-02
   1   13    4     8     3    1.4569E+02 -1.3030E+00   1.4699E+02  0.000E+00  0.000E+00  0.000E+00  1.01217E+03  2.791E+00  4.047E+01  4.124E+00 -1.053E-01
   1   13    3     8     4    1.4699E+02 -1.9697E+00   1.4896E+02  0.000E+00  0.000E+00  0.000E+00  1.00593E+03  2.803E+00  4.064E+01  4.141E+00 -1.585E-01
   1   13    2     8     5    1.4896E+02 -1.7445E+00   1.5071E+02  0.000E+00  0.000E+00  0.000E+00  9.99691E+02  2.816E+00  4.083E+01  4.160E+00 -1.398E-01
   1   13    1     8     6    1.5071E+02 -1.8684E+00   1.5258E+02  0.000E+00  0.000E+00  0.000E+00  9.94703E+02  2.828E+00  4.101E+01  2.508E+00 -2.484E-01



 UBDSV3 SAVING "           GW ET" ON UNIT  61 AT TIME STEP  5, STRESS PERIOD   4
 UBDSV3 SAVING "    UZF RECHARGE" ON UNIT  61 AT TIME STEP  5, STRESS PERIOD   4
 UBDSV3 SAVING " SURFACE LEAKAGE" ON UNIT  61 AT TIME STEP  5, STRESS PERIOD   4
 UBDSV3 SAVING "       HORT+DUNN" ON UNIT  61 AT TIME STEP  5, STRESS PERIOD   4
 UBDSV3 SAVING "  STORAGE CHANGE" ON UNIT  61 AT TIME STEP  5, STRESS PERIOD   4


UNSATURATED ZONE PACKAGE VOLUMETRIC BUDGET FOR  TIME STEP     5 STRESS PERIOD    4
  ------------------------------------------------------------------------------



     CUMULATIVE VOLUMES      L**3       RATES FOR THIS TIME STEP      L**3/T
     ------------------                 ------------------------

           IN:                                      IN:
           ---                                      ---
        INFILTRATION =   508766348.8711          INFILTRATION =         169.5000

          OUT:                                     OUT:
          ----                                     ----
              UZF ET =       0.0000E+00                UZF ET =       0.0000E+00
        UZF RECHARGE =   107475712.0261          UZF RECHARGE =          22.4758

            IN - OUT =   401290636.8450              IN - OUT =         147.0242

          STORAGE:                                 STORAGE:
          --------                                 --------
      STORAGE CHANGE =   401265394.4906        STORAGE CHANGE =         147.0242

 PERCENT DISCREPANCY IS DIFFERENCE BETWEEN IN-OUT MINUS CHANGE IN STORAGE
 DIVIDED BY THE AVERAGE OF IN AND OUT TIMES 100

 PERCENT DISCREPANCY =           0.00     PERCENT DISCREPANCY =           0.00






1
  VOLUMETRIC BUDGET FOR ENTIRE MODEL AT END OF TIME STEP    5, STRESS PERIOD   4
  ------------------------------------------------------------------------------

     CUMULATIVE VOLUMES      L**3       RATES FOR THIS TIME STEP      L**3/T
     ------------------                 ------------------------

           IN:                                      IN:
           ---                                      ---
             STORAGE     =      198595.3438               STORAGE     =       1.1862E-02
       CONSTANT HEAD     =           0.0000         CONSTANT HEAD     =           0.0000
               WELLS     =           0.0000                 WELLS     =           0.0000
     HEAD DEP BOUNDS     =     1742590.6250       HEAD DEP BOUNDS     =           0.2077
      STREAM LEAKAGE     =   345952800.0000        STREAM LEAKAGE     =          40.5997
        UZF RECHARGE     =   107475728.0000          UZF RECHARGE     =          22.4758
               GW ET     =           0.0000                 GW ET     =           0.0000
     SURFACE LEAKAGE     =           0.0000       SURFACE LEAKAGE     =           0.0000

                TOTAL IN =   455369728.0000                  TOTAL IN =          63.2951

          OUT:                                     OUT:
          ----                                     ----
             STORAGE     =    62692488.0000               STORAGE     =          21.3414
       CONSTANT HEAD     =           0.0000         CONSTANT HEAD     =           0.0000
               WELLS     =   136449696.0000                 WELLS     =          10.0000
     HEAD DEP BOUNDS     =     2356660.5000       HEAD DEP BOUNDS     =           0.2830
      STREAM LEAKAGE     =    60373460.0000        STREAM LEAKAGE     =           8.1748
        UZF RECHARGE     =           0.0000          UZF RECHARGE     =           0.0000
               GW ET     =   193494896.0000                 GW ET     =          23.4951
     SURFACE LEAKAGE     =           0.0000       SURFACE LEAKAGE     =           0.0000

               TOTAL OUT =   455367168.0000                 TOTAL OUT =          63.2944

                IN - OUT =        2560.0000                  IN - OUT =       6.9809E-04

     PERCENT DISCREPANCY =           0.00         PERCENT DISCREPANCY =           0.00






         TIME SUMMARY AT END OF TIME STEP    5 IN STRESS PERIOD    4
                    SECONDS     MINUTES      HOURS       DAYS        YEARS
                    -----------------------------------------------------------
   TIME STEP LENGTH 1.21100E+05  2018.3      33.639      1.4016     3.83743E-03
 STRESS PERIOD TIME 5.04972E+05  8416.2      140.27      5.8446     1.60016E-02
         TOTAL TIME 8.38897E+06 1.39816E+05  2330.3      97.095     0.26583    
1
 
 SOLVING FOR HEAD 
                                                   Max.-Head-Change                         Max.-Flux-Residual
  Residual-Control   Outer-Iter.   Inner-Iter.     Column Row Layer    Maximum-Head-Change  Column Row Layer    Maximum-Flux-Residual          L2-NORM 
          0                 1           2             6    3     1       0.1152567725E+00       6    3    1         0.2063980014E+01      0.4303713048E+01
          0                 2           2             6    3     1       0.5999196311E-01       6    3    1         0.1074950964E+01      0.1535879111E+01
          0                 3           2             6    3     1       0.3122291650E-01       6    3    1         0.5594611825E+00      0.7842027620E+00
          0                 4           2             6    3     1       0.1624918844E-01       6    3    1         0.2911738202E+00      0.4071679495E+00
          0                 5           2             6    3     1       0.8456221050E-02       6    3    1         0.1515329310E+00      0.2116099460E+00
          0                 6           2             6    3     1       0.4400600114E-02       6    3    1         0.7885883193E-01      0.1099969271E+00
          0                 7           2             6    3     1       0.2290029691E-02       6    3    1         0.4103786351E-01      0.5718117998E-01
          0                 8           2             6    3     1       0.1191696528E-02       6    3    1         0.2135566573E-01      0.2972638803E-01
          0                 9           1             6    3     1       0.6201356659E-03       6    3    1         0.1111314620E-01      0.1545376781E-01
          0                10           1             6    3     1       0.3227044593E-03       6    3    1         0.5783058080E-02      0.8034110202E-02
                                                   Max.-Head-Change                         Max.-Flux-Residual
  Residual-Control   Outer-Iter.   Inner-Iter.     Column Row Layer    Maximum-Head-Change  Column Row Layer    Maximum-Flux-Residual          L2-NORM 
          0                11           1             6    3     1       0.1679271576E-03       6    3    1         0.3009368688E-02      0.4176865217E-02
          0                12           1             6    3     1       0.8738461043E-04       6    3    1         0.1565997344E-02      0.2171583127E-02

    ------------------------------------------------
       NWT REQUIRED           12 OUTER ITERATIONS 
       AND A TOTAL OF         20 INNER ITERATIONS.
    ------------------------------------------------

 NO OUTPUT CONTROL FOR STRESS PERIOD    4   TIME STEP    6
 
 SOLVING FOR HEAD 
                                                   Max.-Head-Change                         Max.-Flux-Residual
  Residual-Control   Outer-Iter.   Inner-Iter.     Column Row Layer    Maximum-Head-Change  Column Row Layer    Maximum-Flux-Residual          L2-NORM 
          0                 1           2             6    3     1       0.1227612163E+00       6    3    1         0.2006010140E+01      0.4311308011E+01
          0                 2           2             6    3     1       0.6356317539E-01       6    3    1         0.1040104682E+01      0.1479076075E+01
          0                 3           2             6    3     1       0.3290633147E-01       6    3    1         0.5384062037E+00      0.7405613121E+00
          0                 4           2             6    3     1       0.1703370601E-01       6    3    1         0.2787367217E+00      0.3800128593E+00
          0                 5           2             6    3     1       0.8816658853E-02       6    3    1         0.1442828101E+00      0.1954942128E+00
          0                 6           2             6    3     1       0.4563203180E-02       6    3    1         0.7468015409E-01      0.1007080971E+00
          0                 7           2             6    3     1       0.2361623899E-02       6    3    1         0.3865151463E-01      0.5192809937E-01
          0                 8           2             6    3     1       0.1222166315E-02       6    3    1         0.2000339386E-01      0.2679387929E-01
          0                 9           1             6    3     1       0.6324576556E-03       6    3    1         0.1035189730E-01      0.1383199449E-01
          0                10           1             6    3     1       0.3272778803E-03       6    3    1         0.5356957793E-02      0.7143226650E-02
                                                   Max.-Head-Change                         Max.-Flux-Residual
  Residual-Control   Outer-Iter.   Inner-Iter.     Column Row Layer    Maximum-Head-Change  Column Row Layer    Maximum-Flux-Residual          L2-NORM 
          0                11           1             6    3     1       0.1693510991E-03       6    3    1         0.2772049136E-02      0.3689990849E-02
          0                12           1             6    3     1       0.8762890114E-04       6    3    1         0.1434399465E-02      0.1906583996E-02

    ------------------------------------------------
       NWT REQUIRED           12 OUTER ITERATIONS 
       AND A TOTAL OF         20 INNER ITERATIONS.
    ------------------------------------------------

 NO OUTPUT CONTROL FOR STRESS PERIOD    4   TIME STEP    7
 
 SOLVING FOR HEAD 
                                                   Max.-Head-Change                         Max.-Flux-Residual
  Residual-Control   Outer-Iter.   Inner-Iter.     Column Row Layer    Maximum-Head-Change  Column Row Layer    Maximum-Flux-Residual          L2-NORM 
          0                 1           2             6    3     1       0.1188147555E+00       6    3    1         0.1772245938E+01      0.4381737217E+01
          0                 2           2             6    3     1       0.6119092434E-01       6    3    1         0.9144314586E+00      0.1429253046E+01
          0                 3           2             6    3     1       0.3150438540E-01       6    3    1         0.4707761587E+00      0.6941758958E+00
          0                 4           2             6    3     1       0.1621674459E-01       6    3    1         0.2423844140E+00      0.3474079261E+00
          0                 5           2             6    3     1       0.8346075989E-02       6    3    1         0.1247612137E+00      0.1752680570E+00
          0                 6           2             6    3     1       0.4294756588E-02       6    3    1         0.6420782396E-01      0.8885946889E-01
          0                 7           2             6    3     1       0.2209741408E-02       6    3    1         0.3303956890E-01      0.4520563212E-01
          0                 8           2             6    3     1       0.1136838047E-02       6    3    1         0.1699921974E-01      0.2305525673E-01
          0                 9           1             6    3     1       0.5848121476E-03       6    3    1         0.8745385182E-02      0.1178027656E-01
          0                10           1             6    3     1       0.3008155369E-03       6    3    1         0.4498736128E-02      0.6027627444E-02
                                                   Max.-Head-Change                         Max.-Flux-Residual
  Residual-Control   Outer-Iter.   Inner-Iter.     Column Row Layer    Maximum-Head-Change  Column Row Layer    Maximum-Flux-Residual          L2-NORM 
          0                11           1             6    3     1       0.1547229998E-03       6    3    1         0.2314030288E-02      0.3087374337E-02
          0                12           1             6    3     1       0.7957638601E-04       6    3    1         0.1190197463E-02      0.1582639143E-02

    ------------------------------------------------
       NWT REQUIRED           12 OUTER ITERATIONS 
       AND A TOTAL OF         20 INNER ITERATIONS.
    ------------------------------------------------

 NO OUTPUT CONTROL FOR STRESS PERIOD    4   TIME STEP    8
 
 SOLVING FOR HEAD 
                                                   Max.-Head-Change                         Max.-Flux-Residual
  Residual-Control   Outer-Iter.   Inner-Iter.     Column Row Layer    Maximum-Head-Change  Column Row Layer    Maximum-Flux-Residual          L2-NORM 
          0                 1           2             6    3     1       0.1137317212E+00       6    3    1         0.1550251284E+01      0.4146368194E+01
          0                 2           2             6    3     1       0.5819054197E-01       6    3    1         0.7949324427E+00      0.1254264227E+01
          0                 3           2             6    3     1       0.2976206823E-01       6    3    1         0.4065538568E+00      0.6017243427E+00
          0                 4           2             6    3     1       0.1521834664E-01       6    3    1         0.2079388026E+00      0.2987398167E+00
          0                 5           2             6    3     1       0.7780124588E-02       6    3    1         0.1063209899E+00      0.1495302896E+00
          0                 6           2             6    3     1       0.3976801147E-02       6    3    1         0.5435332816E-01      0.7522480095E-01
          0                 7           2             6    3     1       0.2032450383E-02       6    3    1         0.2778191030E-01      0.3797939117E-01
          0                 8           1             6    3     1       0.1038612290E-02       6    3    1         0.1419837355E-01      0.1922605342E-01
          0                 9           1             6    3     1       0.5306910054E-03       6    3    1         0.7255440453E-02      0.9752038386E-02
          0                10           1             6    3     1       0.2711383740E-03       6    3    1         0.3707190258E-02      0.4953940662E-02
                                                   Max.-Head-Change                         Max.-Flux-Residual
  Residual-Control   Outer-Iter.   Inner-Iter.     Column Row Layer    Maximum-Head-Change  Column Row Layer    Maximum-Flux-Residual          L2-NORM 
          0                11           1             6    3     1       0.1385181125E-03       6    3    1         0.1894034696E-02      0.2519391772E-02
          0                12           1             6    3     1       0.7076084662E-04       6    3    1         0.9676050856E-03      0.1282370408E-02

    ------------------------------------------------
       NWT REQUIRED           12 OUTER ITERATIONS 
       AND A TOTAL OF         19 INNER ITERATIONS.
    ------------------------------------------------

 NO OUTPUT CONTROL FOR STRESS PERIOD    4   TIME STEP    9
 
 SOLVING FOR HEAD 
                                                   Max.-Head-Change                         Max.-Flux-Residual
  Residual-Control   Outer-Iter.   Inner-Iter.     Column Row Layer    Maximum-Head-Change  Column Row Layer    Maximum-Flux-Residual          L2-NORM 
          0                 1           2             6    3     1       0.1074899225E+00       6    3    1         0.1339685221E+01      0.3941958540E+01
          0                 2           2             6    3     1       0.5460528714E-01       6    3    1         0.6822333980E+00      0.1091066377E+01
          0                 3           2             6    3     1       0.2772723282E-01       6    3    1         0.3464135337E+00      0.5152887085E+00
          0                 4           2             6    3     1       0.1407517796E-01       6    3    1         0.1759020767E+00      0.2535097411E+00
          0                 5           2             6    3     1       0.7143362245E-02       6    3    1         0.8928822985E-01      0.1257837548E+00
          0                 6           2             6    3     1       0.3624672723E-02       6    3    1         0.4531364243E-01      0.6273859966E-01
          0                 7           2             6    3     1       0.1838926765E-02       6    3    1         0.2299227334E-01      0.3141140136E-01
          0                 8           1             6    3     1       0.9328236612E-03       6    3    1         0.1166450812E-01      0.1577137942E-01
          0                 9           1             6    3     1       0.4731322804E-03       6    3    1         0.5916868294E-02      0.7935618365E-02
          0                10           1             6    3     1       0.2399499458E-03       6    3    1         0.3001004227E-02      0.3999379229E-02
                                                   Max.-Head-Change                         Max.-Flux-Residual
  Residual-Control   Outer-Iter.   Inner-Iter.     Column Row Layer    Maximum-Head-Change  Column Row Layer    Maximum-Flux-Residual          L2-NORM 
          0                11           1             6    3     1       0.1216801941E-03       6    3    1         0.1521939841E-02      0.2018065831E-02
          0                12           1             6    3     1       0.6170005235E-04       6    3    1         0.7717746298E-03      0.1019264864E-02

    ------------------------------------------------
       NWT REQUIRED           12 OUTER ITERATIONS 
       AND A TOTAL OF         19 INNER ITERATIONS.
    ------------------------------------------------

 OUTPUT CONTROL FOR STRESS PERIOD    4   TIME STEP   10
    PRINT BUDGET
    SAVE BUDGET

            WELLS   PERIOD    4   STEP  10
 WELL      1   LAYER   1   ROW     6   COL     4   RATE    -1.00000    
 WELL      2   LAYER   1   ROW     6   COL     5   RATE    -1.00000    
 WELL      3   LAYER   1   ROW     7   COL     4   RATE    -1.00000    
 WELL      4   LAYER   1   ROW     7   COL     5   RATE    -1.00000    
 WELL      5   LAYER   1   ROW     8   COL     4   RATE    -1.00000    
 WELL      6   LAYER   1   ROW     8   COL     5   RATE    -1.00000    
 WELL      7   LAYER   1   ROW     9   COL     4   RATE    -1.00000    
 WELL      8   LAYER   1   ROW     9   COL     5   RATE    -1.00000    
 WELL      9   LAYER   1   ROW    10   COL     4   RATE    -1.00000    
 WELL     10   LAYER   1   ROW    10   COL     5   RATE    -1.00000    

  HEAD DEP BOUNDS   PERIOD    4   STEP    10
 BOUNDARY      1   LAYER   1   ROW    13   COL     1   RATE   -0.283758    
 BOUNDARY      2   LAYER   1   ROW    14   COL     9   RATE    0.207710    



 STREAM LISTING     PERIOD      4   STEP       10

 LAYER ROW COL. STREAM  RCH.  FLOW INTO     FLOW TO   FLOW OUT OF   OVRLND.     DIRECT     STREAM       STREAM     STREAM     STREAM   STREAMBED  STREAMBED
                SEG.NO.  NO.  STRM. RCH.    AQUIFER    STRM. RCH.    RUNOFF     PRECIP       ET          HEAD       DEPTH      WIDTH   CONDCTNC.   GRADIENT

   1    1    1     1     1    2.5000E+01  1.1995E+00   2.3800E+01  0.000E+00  0.000E+00  0.000E+00  1.09422E+03  1.171E+00  1.294E+01  5.824E-01  6.865E-01
   1    2    2     1     2    2.3800E+01  2.7422E+00   2.1058E+01  0.000E+00  0.000E+00  0.000E+00  1.08920E+03  1.140E+00  1.253E+01  8.774E-01  1.042E+00
   1    3    3     1     3    2.1058E+01  2.9178E+00   1.8140E+01  0.000E+00  0.000E+00  0.000E+00  1.08351E+03  1.094E+00  1.188E+01  7.128E-01  1.365E+00
   1    3    4     1     4    1.8140E+01  2.4791E+00   1.5661E+01  0.000E+00  0.000E+00  0.000E+00  1.07846E+03  1.048E+00  1.104E+01  6.125E-01  1.349E+00
   1    4    5     2     1    5.6612E+00  2.6688E+00   2.9924E+00  0.000E+00  0.000E+00  0.000E+00  1.07236E+03  4.215E-01  1.200E+01  7.800E-01  1.141E+00
   1    5    6     2     2    2.9924E+00  1.9598E+00   1.0327E+00  0.000E+00  0.000E+00  0.000E+00  1.06678E+03  2.663E-01  1.200E+01  6.000E-01  1.089E+00
   1    6    6     2     3    1.0327E+00  1.0327E+00   0.0000E+00  0.000E+00  0.000E+00  0.000E+00  1.06183E+03  4.015E-02  1.200E+01  6.000E-01  1.013E+00
   1    7    6     2     4    0.0000E+00  0.0000E+00   0.0000E+00  0.000E+00  0.000E+00  0.000E+00  1.05708E+03  0.000E+00  1.200E+01  6.000E-01  1.000E+00
   1    8    6     2     5    0.0000E+00  0.0000E+00   0.0000E+00  0.000E+00  0.000E+00  0.000E+00  1.05236E+03  0.000E+00  1.200E+01  6.000E-01  1.000E+00
   1    3    5     3     1    1.0000E+01 -4.7376E-02   1.0047E+01  0.000E+00  0.000E+00  0.000E+00  1.07555E+03  1.909E+00  9.636E+00  7.227E-01 -3.278E-02
   1    3    6     3     2    1.0047E+01 -1.1752E-01   1.0165E+01  0.000E+00  0.000E+00  0.000E+00  1.07264E+03  1.727E+00  8.909E+00  6.682E-01 -8.794E-02
   1    3    7     3     3    1.0165E+01  3.4274E-01   9.8222E+00  0.000E+00  0.000E+00  0.000E+00  1.06987E+03  1.555E+00  8.218E+00  5.547E-01  3.089E-01
   1    4    8     3     4    9.8222E+00  1.6744E+00   8.1477E+00  0.000E+00  0.000E+00  0.000E+00  1.06682E+03  1.364E+00  7.455E+00  6.709E-01  1.248E+00
   1    5    8     3     5    8.1477E+00  1.5790E+00   6.5687E+00  0.000E+00  0.000E+00  0.000E+00  1.06362E+03  1.164E+00  6.655E+00  4.991E-01  1.582E+00
   1    6    8     3     6    6.5687E+00  5.5980E-01   6.0090E+00  0.000E+00  0.000E+00  0.000E+00  1.06158E+03  1.036E+00  6.145E+00  1.844E-01  1.518E+00
   1    5   10     4     1    1.0000E+01  9.0525E-01   9.0947E+00  0.000E+00  0.000E+00  0.000E+00  1.07835E+03  6.210E-01  1.000E+01  2.500E-01  1.207E+00
   1    5    9     4     2    9.0947E+00  1.7835E+00   7.3113E+00  0.000E+00  0.000E+00  0.000E+00  1.07148E+03  5.670E-01  1.000E+01  5.000E-01  1.189E+00
   1    6    8     4     3    7.3113E+00  1.2257E+00   6.0855E+00  0.000E+00  0.000E+00  0.000E+00  1.06368E+03  5.021E-01  1.000E+01  3.500E-01  1.167E+00
   1    6    8     5     1    1.2094E+01  5.7005E-01   1.1524E+01  0.000E+00  0.000E+00  0.000E+00  1.05871E+03  7.119E-01  1.672E+01  6.686E-01  2.842E-01
   1    7    7     5     2    1.1524E+01  1.7761E+00   9.7483E+00  0.000E+00  0.000E+00  0.000E+00  1.05419E+03  6.863E-01  1.570E+01  7.849E-01  7.543E-01
   1    8    7     5     3    9.7483E+00  1.3584E+00   8.3898E+00  0.000E+00  0.000E+00  0.000E+00  1.04990E+03  6.490E-01  1.427E+01  4.993E-01  9.068E-01
   1    8    6     5     4    8.3898E+00  1.1781E+00   7.2117E+00  0.000E+00  0.000E+00  0.000E+00  1.04687E+03  6.157E-01  1.303E+01  3.258E-01  1.205E+00
   1    9    6     6     1    7.2117E+00  2.1159E+00   5.0958E+00  0.000E+00  0.000E+00  0.000E+00  1.04325E+03  5.266E-01  1.200E+01  6.000E-01  1.176E+00
   1   10    7     6     2    5.0958E+00  1.4379E+00   3.6579E+00  0.000E+00  0.000E+00  0.000E+00  1.03861E+03  4.292E-01  1.200E+01  6.000E-01  7.988E-01
   1   11    7     6     3    3.6579E+00  1.4495E+00   2.2084E+00  0.000E+00  0.000E+00  0.000E+00  1.03397E+03  3.376E-01  1.200E+01  6.000E-01  8.053E-01
   1   12    7     6     4    2.2084E+00  1.1796E+00   1.0288E+00  0.000E+00  0.000E+00  0.000E+00  1.02933E+03  2.363E-01  1.200E+01  6.000E-01  6.553E-01
   1   13    7     6     5    1.0288E+00 -7.9011E-01   1.8189E+00  0.000E+00  0.000E+00  0.000E+00  1.02613E+03  2.188E-01  1.200E+01  2.400E-01 -1.097E+00
   1   14    9     7     1    1.5000E+02  1.8625E+00   1.4814E+02  0.000E+00  0.000E+00  0.000E+00  1.03987E+03  2.286E+00  5.529E+01  5.592E+00  1.110E-01
   1   13    8     7     2    1.4814E+02  1.8948E+00   1.4624E+02  0.000E+00  0.000E+00  0.000E+00  1.03478E+03  2.276E+00  5.524E+01  6.146E+00  1.028E-01
   1   13    7     7     3    1.4624E+02  1.4884E+00   1.4475E+02  0.000E+00  0.000E+00  0.000E+00  1.02969E+03  2.267E+00  5.520E+01  5.583E+00  8.887E-02
   1   13    6     8     1    1.4657E+02  2.5432E-01   1.4632E+02  0.000E+00  0.000E+00  0.000E+00  1.02467E+03  2.792E+00  4.048E+01  4.125E+00  2.055E-02
   1   13    5     8     2    1.4632E+02 -7.2689E-01   1.4705E+02  0.000E+00  0.000E+00  0.000E+00  1.01842E+03  2.793E+00  4.050E+01  4.127E+00 -5.870E-02
   1   13    4     8     3    1.4705E+02 -1.5468E+00   1.4859E+02  0.000E+00  0.000E+00  0.000E+00  1.01218E+03  2.801E+00  4.062E+01  4.139E+00 -1.246E-01
   1   13    3     8     4    1.4859E+02 -2.1945E+00   1.5079E+02  0.000E+00  0.000E+00  0.000E+00  1.00594E+03  2.815E+00  4.081E+01  4.159E+00 -1.759E-01
   1   13    2     8     5    1.5079E+02 -1.7254E+00   1.5251E+02  0.000E+00  0.000E+00  0.000E+00  9.99703E+02  2.828E+00  4.101E+01  4.179E+00 -1.376E-01
   1   13    1     8     6    1.5251E+02 -1.8923E+00   1.5440E+02  0.000E+00  0.000E+00  0.000E+00  9.94716E+02  2.841E+00  4.119E+01  2.519E+00 -2.504E-01



 UBDSV3 SAVING "           GW ET" ON UNIT  61 AT TIME STEP 10, STRESS PERIOD   4
 UBDSV3 SAVING "    UZF RECHARGE" ON UNIT  61 AT TIME STEP 10, STRESS PERIOD   4
 UBDSV3 SAVING " SURFACE LEAKAGE" ON UNIT  61 AT TIME STEP 10, STRESS PERIOD   4
 UBDSV3 SAVING "       HORT+DUNN" ON UNIT  61 AT TIME STEP 10, STRESS PERIOD   4
 UBDSV3 SAVING "  STORAGE CHANGE" ON UNIT  61 AT TIME STEP 10, STRESS PERIOD   4


UNSATURATED ZONE PACKAGE VOLUMETRIC BUDGET FOR  TIME STEP    10 STRESS PERIOD    4
  ------------------------------------------------------------------------------



     CUMULATIVE VOLUMES      L**3       RATES FOR THIS TIME STEP      L**3/T
     ------------------                 ------------------------

           IN:                                      IN:
           ---                                      ---
        INFILTRATION =   646614228.5352          INFILTRATION =         169.5000

          OUT:                                     OUT:
          ----                                     ----
              UZF ET =       0.0000E+00                UZF ET =       0.0000E+00
        UZF RECHARGE =   132026753.4326          UZF RECHARGE =          30.3013

            IN - OUT =   514587475.1025              IN - OUT =         139.1987

          STORAGE:                                 STORAGE:
          --------                                 --------
      STORAGE CHANGE =   514561381.4189        STORAGE CHANGE =         139.1944

 PERCENT DISCREPANCY IS DIFFERENCE BETWEEN IN-OUT MINUS CHANGE IN STORAGE
 DIVIDED BY THE AVERAGE OF IN AND OUT TIMES 100

 PERCENT DISCREPANCY =           0.00     PERCENT DISCREPANCY =           0.00






1
  VOLUMETRIC BUDGET FOR ENTIRE MODEL AT END OF TIME STEP   10, STRESS PERIOD   4
  ------------------------------------------------------------------------------

     CUMULATIVE VOLUMES      L**3       RATES FOR THIS TIME STEP      L**3/T
     ------------------                 ------------------------

           IN:                                      IN:
           ---                                      ---
             STORAGE     =      207550.3281               STORAGE     =       1.0371E-02
       CONSTANT HEAD     =           0.0000         CONSTANT HEAD     =           0.0000
               WELLS     =           0.0000                 WELLS     =           0.0000
     HEAD DEP BOUNDS     =     1911514.8750       HEAD DEP BOUNDS     =           0.2077
      STREAM LEAKAGE     =   378527872.0000        STREAM LEAKAGE     =          39.6362
        UZF RECHARGE     =   132026768.0000          UZF RECHARGE     =          30.3013
               GW ET     =           0.0000                 GW ET     =           0.0000
     SURFACE LEAKAGE     =           0.0000       SURFACE LEAKAGE     =           0.0000

                TOTAL IN =   512673728.0000                  TOTAL IN =          70.1555

          OUT:                                     OUT:
          ----                                     ----
             STORAGE     =    85392816.0000               STORAGE     =          27.0173
       CONSTANT HEAD     =           0.0000         CONSTANT HEAD     =           0.0000
               WELLS     =   144582304.0000                 WELLS     =          10.0000
     HEAD DEP BOUNDS     =     2587133.5000       HEAD DEP BOUNDS     =           0.2838
      STREAM LEAKAGE     =    67346920.0000        STREAM LEAKAGE     =           9.0409
        UZF RECHARGE     =           0.0000          UZF RECHARGE     =           0.0000
               GW ET     =   212761008.0000                 GW ET     =          23.8127
     SURFACE LEAKAGE     =           0.0000       SURFACE LEAKAGE     =           0.0000

               TOTAL OUT =   512670208.0000                 TOTAL OUT =          70.1547

                IN - OUT =        3520.0000                  IN - OUT =       8.3160E-04

     PERCENT DISCREPANCY =           0.00         PERCENT DISCREPANCY =           0.00






         TIME SUMMARY AT END OF TIME STEP   10 IN STRESS PERIOD    4
                    SECONDS     MINUTES      HOURS       DAYS        YEARS
                    -----------------------------------------------------------
   TIME STEP LENGTH 1.95033E+05  3250.6      54.176      2.2573     6.18023E-03
 STRESS PERIOD TIME 1.31823E+06  21971.      366.18      15.257     4.17723E-02
         TOTAL TIME 9.20223E+06 1.53371E+05  2556.2      106.51     0.29160    
1
 
 SOLVING FOR HEAD 
                                                   Max.-Head-Change                         Max.-Flux-Residual
  Residual-Control   Outer-Iter.   Inner-Iter.     Column Row Layer    Maximum-Head-Change  Column Row Layer    Maximum-Flux-Residual          L2-NORM 
          0                 1           2             6    3     1       0.1002033412E+00       6    3    1         0.1142478303E+01      0.3798809451E+01
          0                 2           2             6    3     1       0.5050530174E-01       6    3    1         0.5774548543E+00      0.9516472763E+00
          0                 3           2             6    3     1       0.2544226338E-01       6    3    1         0.2908947629E+00      0.4372069581E+00
          0                 4           2             6    3     1       0.1281237577E-01       6    3    1         0.1465403356E+00      0.2122624434E+00
          0                 5           2             6    3     1       0.6450464090E-02       6    3    1         0.7379094787E-01      0.1041895100E+00
          0                 6           2             6    3     1       0.3246821805E-02       6    3    1         0.3714909412E-01      0.5145953924E-01
          0                 7           2             6    3     1       0.1633977872E-02       6    3    1         0.1869823579E-01      0.2552478126E-01
          0                 8           1             6    3     1       0.8221773361E-03       6    3    1         0.9409697660E-02      0.1270049724E-01
          0                 9           1             6    3     1       0.4136433177E-03       6    3    1         0.4734607874E-02      0.6334285124E-02
          0                10           1             6    3     1       0.2080826177E-03       6    3    1         0.2381963305E-02      0.3164783286E-02
                                                   Max.-Head-Change                         Max.-Flux-Residual
  Residual-Control   Outer-Iter.   Inner-Iter.     Column Row Layer    Maximum-Head-Change  Column Row Layer    Maximum-Flux-Residual          L2-NORM 
          0                11           1             6    3     1       0.1046650768E-03       6    3    1         0.1198220316E-02      0.1583335644E-02
          0                12           1             6    3     1       0.5264170066E-04       6    3    1         0.6026922456E-03      0.7930131927E-03

    ------------------------------------------------
       NWT REQUIRED           12 OUTER ITERATIONS 
       AND A TOTAL OF         19 INNER ITERATIONS.
    ------------------------------------------------

 NO OUTPUT CONTROL FOR STRESS PERIOD    4   TIME STEP   11
 
 SOLVING FOR HEAD 
                                                   Max.-Head-Change                         Max.-Flux-Residual
  Residual-Control   Outer-Iter.   Inner-Iter.     Column Row Layer    Maximum-Head-Change  Column Row Layer    Maximum-Flux-Residual          L2-NORM 
          0                 1           2             6    3     1       0.9202407624E-01       7   12    1         0.1044171625E+01      0.3674858852E+01
          0                 2           2             6    3     1       0.4599147930E-01       6    3    1         0.4814525007E+00      0.8255327078E+00
          0                 3           2             6    3     1       0.2296967072E-01       6    3    1         0.2404740266E+00      0.3662778976E+00
          0                 4           2             6    3     1       0.1146727679E-01       6    3    1         0.1200992731E+00      0.1751349360E+00
          0                 5           2             6    3     1       0.5723144522E-02       6    3    1         0.5995338997E-01      0.8494804647E-01
          0                 6           2             6    3     1       0.2855621381E-02       6    3    1         0.2992050875E-01      0.4150608005E-01
          0                 7           2             6    3     1       0.1424539333E-02       6    3    1         0.1492853923E-01      0.2037771673E-01
          0                 8           1             6    3     1       0.7105086296E-03       6    3    1         0.7446914436E-02      0.1003922721E-01
          0                 9           1             6    3     1       0.3543205959E-03       6    3    1         0.3714141967E-02      0.4958640469E-02
          0                10           1             6    3     1       0.1766708456E-03       6    3    1         0.1852143092E-02      0.2453949702E-02
          0                11           1             6    3     1       0.8808108765E-04       6    3    1         0.9234927954E-03      0.1258408218E-02

    ------------------------------------------------
       NWT REQUIRED           11 OUTER ITERATIONS 
       AND A TOTAL OF         18 INNER ITERATIONS.
    ------------------------------------------------

 NO OUTPUT CONTROL FOR STRESS PERIOD    4   TIME STEP   12
 
 SOLVING FOR HEAD 
                                                   Max.-Head-Change                         Max.-Flux-Residual
  Residual-Control   Outer-Iter.   Inner-Iter.     Column Row Layer    Maximum-Head-Change  Column Row Layer    Maximum-Flux-Residual          L2-NORM 
          0                 1           2             7    3     1       0.8556765885E-01       7   12    1         0.1004434229E+01      0.3513457273E+01
          0                 2           2             6    3     1       0.4119243731E-01       6    3    1         0.3950612091E+00      0.6951901372E+00
          0                 3           2             6    3     1       0.2038066971E-01       6    3    1         0.1954966055E+00      0.2998714004E+00
          0                 4           2             6    3     1       0.1007891613E-01       6    3    1         0.9672248871E-01      0.1417757320E+00
          0                 5           2             6    3     1       0.4982599409E-02       6    3    1         0.4782830950E-01      0.6799898372E-01
          0                 6           2             6    3     1       0.2462477704E-02       6    3    1         0.2364310093E-01      0.3285366545E-01
          0                 7           2             6    3     1       0.1216696201E-02       6    3    1         0.1168423357E-01      0.1595261027E-01
          0                 8           1             6    3     1       0.6010364698E-03       6    3    1         0.5772884124E-02      0.7774623612E-02
          0                 9           1             6    3     1       0.2968527523E-03       6    3    1         0.2851652637E-02      0.3799566979E-02
          0                10           1             6    3     1       0.1465931459E-03       6    3    1         0.1408393647E-02      0.1860817813E-02
          0                11           1             6    3     1       0.7238153017E-04       6    3    1         0.6954814555E-03      0.9127979873E-03

    ------------------------------------------------
       NWT REQUIRED           11 OUTER ITERATIONS 
       AND A TOTAL OF         18 INNER ITERATIONS.
    ------------------------------------------------

 NO OUTPUT CONTROL FOR STRESS PERIOD    4   TIME STEP   13
 
 SOLVING FOR HEAD 
                                                   Max.-Head-Change                         Max.-Flux-Residual
  Residual-Control   Outer-Iter.   Inner-Iter.     Column Row Layer    Maximum-Head-Change  Column Row Layer    Maximum-Flux-Residual          L2-NORM 
          0                 1           2             7    3     1       0.8012379211E-01       7   12    1         0.9600145366E+00      0.3384674265E+01
          0                 2           2             6    3     1       0.3624618568E-01       6    3    1         0.3186857369E+00      0.5838233487E+00
          0                 3           2             6    3     1       0.1775122880E-01       6    3    1         0.1561173126E+00      0.2418644096E+00
          0                 4           2             6    3     1       0.8688522270E-02       6    3    1         0.7645295715E-01      0.1128311953E+00
          0                 5           2             6    3     1       0.4250923013E-02       6    3    1         0.3741681315E-01      0.5344084114E-01
          0                 6           2             6    3     1       0.2079094165E-02       6    3    1         0.1830530899E-01      0.2550153783E-01
          0                 7           1             6    3     1       0.1016580110E-02       6    3    1         0.8952490661E-02      0.1223302521E-01
          0                 8           1             6    3     1       0.4969395003E-03       6    3    1         0.4377147154E-02      0.5891376459E-02
          0                 9           1             6    3     1       0.2428704227E-03       6    3    1         0.2139615186E-02      0.2845859772E-02
          0                10           1             6    3     1       0.1186772254E-03       6    3    1         0.1045663137E-02      0.1377885299E-02
          0                11           1             6    3     1       0.5798189282E-04       6    3    1         0.5109419967E-03      0.6683119966E-03

    ------------------------------------------------
       NWT REQUIRED           11 OUTER ITERATIONS 
       AND A TOTAL OF         17 INNER ITERATIONS.
    ------------------------------------------------

 NO OUTPUT CONTROL FOR STRESS PERIOD    4   TIME STEP   14
 
 SOLVING FOR HEAD 
                                                   Max.-Head-Change                         Max.-Flux-Residual
  Residual-Control   Outer-Iter.   Inner-Iter.     Column Row Layer    Maximum-Head-Change  Column Row Layer    Maximum-Flux-Residual          L2-NORM 
          0                 1           2             7    3     1       0.7393128854E-01       4    7    1         0.9296251972E+00      0.3280245818E+01
          0                 2           2             6    3     1       0.3130113837E-01       6    3    1         0.2524688687E+00      0.4909150381E+00
          0                 3           2             6    3     1       0.1516036438E-01       6    3    1         0.1223341841E+00      0.1920950021E+00
          0                 4           2             6    3     1       0.7337608166E-02       6    3    1         0.5924612293E-01      0.8820360156E-01
          0                 5           2             6    3     1       0.3549653862E-02       6    3    1         0.2867151545E-01      0.4119658319E-01
          0                 6           2             6    3     1       0.1716510274E-02       6    3    1         0.1386914726E-01      0.1939157441E-01
          0                 7           1             6    3     1       0.8297805497E-03       6    3    1         0.6706281009E-02      0.9178616148E-02
          0                 8           1             6    3     1       0.4010122271E-03       6    3    1         0.3241715527E-02      0.4362953053E-02
          0                 9           1             6    3     1       0.1937522109E-03       6    3    1         0.1566566710E-02      0.2080855419E-02
          0                10           1             6    3     1       0.9359331470E-04       6    3    1         0.7568684423E-03      0.9948915834E-03

    ------------------------------------------------
       NWT REQUIRED           10 OUTER ITERATIONS 
       AND A TOTAL OF         16 INNER ITERATIONS.
    ------------------------------------------------

 OUTPUT CONTROL FOR STRESS PERIOD    4   TIME STEP   15
    PRINT BUDGET
    PRINT HEAD FOR ALL LAYERS
    SAVE HEAD FOR ALL LAYERS
    SAVE BUDGET

            WELLS   PERIOD    4   STEP  15
 WELL      1   LAYER   1   ROW     6   COL     4   RATE    -1.00000    
 WELL      2   LAYER   1   ROW     6   COL     5   RATE    -1.00000    
 WELL      3   LAYER   1   ROW     7   COL     4   RATE    -1.00000    
 WELL      4   LAYER   1   ROW     7   COL     5   RATE    -1.00000    
 WELL      5   LAYER   1   ROW     8   COL     4   RATE    -1.00000    
 WELL      6   LAYER   1   ROW     8   COL     5   RATE    -1.00000    
 WELL      7   LAYER   1   ROW     9   COL     4   RATE    -1.00000    
 WELL      8   LAYER   1   ROW     9   COL     5   RATE    -1.00000    
 WELL      9   LAYER   1   ROW    10   COL     4   RATE    -1.00000    
 WELL     10   LAYER   1   ROW    10   COL     5   RATE    -1.00000    

  HEAD DEP BOUNDS   PERIOD    4   STEP    15
 BOUNDARY      1   LAYER   1   ROW    13   COL     1   RATE   -0.286418    
 BOUNDARY      2   LAYER   1   ROW    14   COL     9   RATE    0.207698    



 STREAM LISTING     PERIOD      4   STEP       15

 LAYER ROW COL. STREAM  RCH.  FLOW INTO     FLOW TO   FLOW OUT OF   OVRLND.     DIRECT     STREAM       STREAM     STREAM     STREAM   STREAMBED  STREAMBED
                SEG.NO.  NO.  STRM. RCH.    AQUIFER    STRM. RCH.    RUNOFF     PRECIP       ET          HEAD       DEPTH      WIDTH   CONDCTNC.   GRADIENT

   1    1    1     1     1    2.5000E+01  1.1994E+00   2.3801E+01  0.000E+00  0.000E+00  0.000E+00  1.09422E+03  1.171E+00  1.294E+01  5.824E-01  6.864E-01
   1    2    2     1     2    2.3801E+01  2.7397E+00   2.1061E+01  0.000E+00  0.000E+00  0.000E+00  1.08920E+03  1.141E+00  1.253E+01  8.774E-01  1.041E+00
   1    3    3     1     3    2.1061E+01  2.9181E+00   1.8143E+01  0.000E+00  0.000E+00  0.000E+00  1.08351E+03  1.094E+00  1.188E+01  7.128E-01  1.365E+00
   1    3    4     1     4    1.8143E+01  2.4793E+00   1.5664E+01  0.000E+00  0.000E+00  0.000E+00  1.07846E+03  1.048E+00  1.104E+01  6.125E-01  1.349E+00
   1    4    5     2     1    5.6635E+00  2.6689E+00   2.9946E+00  0.000E+00  0.000E+00  0.000E+00  1.07236E+03  4.217E-01  1.200E+01  7.800E-01  1.141E+00
   1    5    6     2     2    2.9946E+00  1.9599E+00   1.0347E+00  0.000E+00  0.000E+00  0.000E+00  1.06678E+03  2.665E-01  1.200E+01  6.000E-01  1.089E+00
   1    6    6     2     3    1.0347E+00  1.0347E+00   0.0000E+00  0.000E+00  0.000E+00  0.000E+00  1.06183E+03  4.020E-02  1.200E+01  6.000E-01  1.013E+00
   1    7    6     2     4    0.0000E+00  0.0000E+00   0.0000E+00  0.000E+00  0.000E+00  0.000E+00  1.05708E+03  0.000E+00  1.200E+01  6.000E-01  1.000E+00
   1    8    6     2     5    0.0000E+00  0.0000E+00   0.0000E+00  0.000E+00  0.000E+00  0.000E+00  1.05236E+03  0.000E+00  1.200E+01  6.000E-01  1.000E+00
   1    3    5     3     1    1.0000E+01 -5.4803E-01   1.0548E+01  0.000E+00  0.000E+00  0.000E+00  1.07555E+03  1.909E+00  9.636E+00  7.227E-01 -3.791E-01
   1    3    6     3     2    1.0548E+01 -6.6562E-01   1.1214E+01  0.000E+00  0.000E+00  0.000E+00  1.07264E+03  1.727E+00  8.909E+00  6.682E-01 -4.981E-01
   1    3    7     3     3    1.1214E+01 -6.7224E-02   1.1281E+01  0.000E+00  0.000E+00  0.000E+00  1.06987E+03  1.555E+00  8.218E+00  5.547E-01 -6.059E-02
   1    4    8     3     4    1.1281E+01  1.6680E+00   9.6129E+00  0.000E+00  0.000E+00  0.000E+00  1.06682E+03  1.364E+00  7.455E+00  6.709E-01  1.243E+00
   1    5    8     3     5    9.6129E+00  1.5790E+00   8.0339E+00  0.000E+00  0.000E+00  0.000E+00  1.06362E+03  1.164E+00  6.655E+00  4.991E-01  1.582E+00
   1    6    8     3     6    8.0339E+00  5.5980E-01   7.4741E+00  0.000E+00  0.000E+00  0.000E+00  1.06158E+03  1.036E+00  6.145E+00  1.844E-01  1.518E+00
   1    5   10     4     1    1.0000E+01  9.0525E-01   9.0947E+00  0.000E+00  0.000E+00  0.000E+00  1.07835E+03  6.210E-01  1.000E+01  2.500E-01  1.207E+00
   1    5    9     4     2    9.0947E+00  1.7835E+00   7.3113E+00  0.000E+00  0.000E+00  0.000E+00  1.07148E+03  5.670E-01  1.000E+01  5.000E-01  1.189E+00
   1    6    8     4     3    7.3113E+00  1.2257E+00   6.0855E+00  0.000E+00  0.000E+00  0.000E+00  1.06368E+03  5.021E-01  1.000E+01  3.500E-01  1.167E+00
   1    6    8     5     1    1.3560E+01  5.9525E-01   1.2964E+01  0.000E+00  0.000E+00  0.000E+00  1.05874E+03  7.414E-01  1.792E+01  7.168E-01  2.768E-01
   1    7    7     5     2    1.2964E+01  1.8319E+00   1.1133E+01  0.000E+00  0.000E+00  0.000E+00  1.05422E+03  7.169E-01  1.692E+01  8.459E-01  7.219E-01
   1    8    7     5     3    1.1133E+01  1.4238E+00   9.7087E+00  0.000E+00  0.000E+00  0.000E+00  1.04993E+03  6.814E-01  1.551E+01  5.427E-01  8.745E-01
   1    8    6     5     4    9.7087E+00  1.3005E+00   8.4083E+00  0.000E+00  0.000E+00  0.000E+00  1.04690E+03  6.488E-01  1.426E+01  3.564E-01  1.216E+00
   1    9    6     6     1    8.4083E+00  2.1510E+00   6.2573E+00  0.000E+00  0.000E+00  0.000E+00  1.04331E+03  5.850E-01  1.200E+01  6.000E-01  1.195E+00
   1   10    7     6     2    6.2573E+00  1.4451E+00   4.8122E+00  0.000E+00  0.000E+00  0.000E+00  1.03868E+03  4.941E-01  1.200E+01  6.000E-01  8.028E-01
   1   11    7     6     3    4.8122E+00  1.3661E+00   3.4460E+00  0.000E+00  0.000E+00  0.000E+00  1.03405E+03  4.145E-01  1.200E+01  6.000E-01  7.590E-01
   1   12    7     6     4    3.4460E+00  1.0667E+00   2.3794E+00  0.000E+00  0.000E+00  0.000E+00  1.02943E+03  3.362E-01  1.200E+01  6.000E-01  5.926E-01
   1   13    7     6     5    2.3794E+00 -7.8396E-01   3.1633E+00  0.000E+00  0.000E+00  0.000E+00  1.02624E+03  3.263E-01  1.200E+01  2.400E-01 -1.089E+00
   1   14    9     7     1    1.5000E+02  1.8608E+00   1.4814E+02  0.000E+00  0.000E+00  0.000E+00  1.03987E+03  2.286E+00  5.529E+01  5.592E+00  1.109E-01
   1   13    8     7     2    1.4814E+02  1.8828E+00   1.4626E+02  0.000E+00  0.000E+00  0.000E+00  1.03478E+03  2.276E+00  5.524E+01  6.146E+00  1.021E-01
   1   13    7     7     3    1.4626E+02  1.0387E+00   1.4522E+02  0.000E+00  0.000E+00  0.000E+00  1.02969E+03  2.269E+00  5.521E+01  5.584E+00  6.201E-02
   1   13    6     8     1    1.4838E+02 -1.3246E-01   1.4851E+02  0.000E+00  0.000E+00  0.000E+00  1.02468E+03  2.806E+00  4.069E+01  4.146E+00 -1.065E-02
   1   13    5     8     2    1.4851E+02 -8.9785E-01   1.4941E+02  0.000E+00  0.000E+00  0.000E+00  1.01843E+03  2.810E+00  4.074E+01  4.151E+00 -7.209E-02
   1   13    4     8     3    1.4941E+02 -1.7249E+00   1.5114E+02  0.000E+00  0.000E+00  0.000E+00  1.01219E+03  2.819E+00  4.087E+01  4.165E+00 -1.380E-01
   1   13    3     8     4    1.5114E+02 -2.3799E+00   1.5352E+02  0.000E+00  0.000E+00  0.000E+00  1.00596E+03  2.833E+00  4.108E+01  4.186E+00 -1.895E-01
   1   13    2     8     5    1.5352E+02 -1.7313E+00   1.5525E+02  0.000E+00  0.000E+00  0.000E+00  9.99722E+02  2.847E+00  4.129E+01  4.207E+00 -1.372E-01
   1   13    1     8     6    1.5525E+02 -2.0336E+00   1.5728E+02  0.000E+00  0.000E+00  0.000E+00  9.94735E+02  2.860E+00  4.148E+01  2.536E+00 -2.673E-01



 UBDSV3 SAVING "           GW ET" ON UNIT  61 AT TIME STEP 15, STRESS PERIOD   4
 UBDSV3 SAVING "    UZF RECHARGE" ON UNIT  61 AT TIME STEP 15, STRESS PERIOD   4
 UBDSV3 SAVING " SURFACE LEAKAGE" ON UNIT  61 AT TIME STEP 15, STRESS PERIOD   4
 UBDSV3 SAVING "       HORT+DUNN" ON UNIT  61 AT TIME STEP 15, STRESS PERIOD   4
 UBDSV3 SAVING "  STORAGE CHANGE" ON UNIT  61 AT TIME STEP 15, STRESS PERIOD   4


UNSATURATED ZONE PACKAGE VOLUMETRIC BUDGET FOR  TIME STEP    15 STRESS PERIOD    4
  ------------------------------------------------------------------------------



     CUMULATIVE VOLUMES      L**3       RATES FOR THIS TIME STEP      L**3/T
     ------------------                 ------------------------

           IN:                                      IN:
           ---                                      ---
        INFILTRATION =   868619630.7227          INFILTRATION =         169.5000

          OUT:                                     OUT:
          ----                                     ----
              UZF ET =       0.0000E+00                UZF ET =       0.0000E+00
        UZF RECHARGE =   170806663.3315          UZF RECHARGE =          28.6006

            IN - OUT =   697812967.3911              IN - OUT =         140.8994

          STORAGE:                                 STORAGE:
          --------                                 --------
      STORAGE CHANGE =   697784226.9610        STORAGE CHANGE =         140.8994

 PERCENT DISCREPANCY IS DIFFERENCE BETWEEN IN-OUT MINUS CHANGE IN STORAGE
 DIVIDED BY THE AVERAGE OF IN AND OUT TIMES 100

 PERCENT DISCREPANCY =           0.00     PERCENT DISCREPANCY =           0.00






1
              HEAD IN LAYER   1 AT END OF TIME STEP  15 IN STRESS PERIOD    4
  ---------------------------------------------------------------------------

           1       2       3       4       5       6       7       8       9      10
 ...................................................................................
   1  1092.16 1087.66 6999.00 6999.00 6999.00 6999.00 6999.00 6999.00 6999.00 6999.00
   2  1087.74 1086.08 1078.14 6999.00 6999.00 1069.59 1069.34 1068.72 6999.00 6999.00
   3  6999.00 1074.78 1078.37 1073.75 1076.30 1073.63 1069.99 1065.97 6999.00 6999.00
   4  1065.89 1065.85 1064.72 1063.37 1065.94 1061.21 1059.64 1064.33 1062.06 6999.00
   5  1062.54 1059.28 1055.55 1053.15 1055.39 1060.25 1057.01 1060.31 1064.11 1065.48
   6  1058.74 1054.04 1049.41 1038.19 1041.53 1052.73 1053.81 1057.91 1057.60 1063.16
   7  1055.87 1048.98 1043.94 1029.46 1033.40 1045.41 1052.05 1052.51 1053.31 6999.00
   8  6999.00 1043.01 1039.21 1025.59 1029.19 1042.78 1047.31 1047.32 1049.78 6999.00
   9  6999.00 1037.09 1034.39 1021.79 1025.89 1039.70 1039.96 1041.43 1045.48 6999.00
  10  6999.00 1031.23 1029.87 1019.90 1022.59 1031.95 1036.27 1037.12 1041.76 1046.49
  11  6999.00 1023.72 1024.17 1023.73 1025.40 1028.58 1031.77 1033.73 1037.82 6999.00
  12  1006.69 1013.34 1015.69 1019.27 1021.99 1024.94 1027.65 1030.06 1035.17 6999.00
  13   995.54 1000.13 1006.53 1012.61 1018.65 1024.71 1029.50 1034.47 1035.78 6999.00
  14  6999.00 1012.46 1017.22 1021.77 1025.60 1028.77 1031.44 1034.75 1039.53 6999.00
  15  6999.00 6999.00 1026.36 1028.58 1031.19 1032.91 6999.00 6999.00 6999.00 6999.00
1
              HEAD IN LAYER   2 AT END OF TIME STEP  15 IN STRESS PERIOD    4
  ---------------------------------------------------------------------------

           1       2       3       4       5       6       7       8       9      10
 ...................................................................................
   1  1090.99 1087.08 6999.00 6999.00 6999.00 6999.00 6999.00 6999.00 6999.00 6999.00
   2  1087.48 1080.68 1075.30 6999.00 6999.00 1069.12 1068.93 1068.39 6999.00 6999.00
   3  6999.00 1072.61 1068.03 1064.35 1064.37 1065.41 1065.81 1065.59 6999.00 6999.00
   4  1065.20 1065.10 1062.19 1058.82 1057.48 1057.05 1058.40 1061.55 1061.66 6999.00
   5  1061.81 1058.53 1055.37 1053.32 1053.08 1053.45 1053.82 1055.70 1059.70 1063.70
   6  1058.06 1053.43 1049.71 1048.05 1048.33 1049.66 1051.04 1052.98 1056.71 1062.82
   7  1055.16 1048.45 1044.57 1043.14 1043.83 1045.55 1047.60 1050.16 1053.16 6999.00
   8  6999.00 1042.64 1039.76 1038.68 1039.55 1041.35 1043.31 1047.00 1049.47 6999.00
   9  6999.00 1036.63 1034.86 1034.36 1035.39 1037.20 1038.75 1041.27 1045.14 6999.00
  10  6999.00 1030.79 1030.23 1030.60 1031.83 1033.55 1034.89 1036.97 1041.33 1046.49
  11  6999.00 1023.83 1024.86 1027.25 1028.90 1030.66 1032.13 1033.85 1037.50 6999.00
  12  1006.98 1014.64 1019.64 1023.45 1026.11 1028.36 1030.03 1031.48 1035.10 6999.00
  13  1000.33 1007.72 1015.67 1020.91 1024.41 1027.31 1029.85 1032.54 1035.35 6999.00
  14  6999.00 1012.73 1017.54 1022.00 1025.62 1028.62 1031.10 1034.28 1036.87 6999.00
  15  6999.00 6999.00 1026.36 1028.58 1030.73 1032.45 6999.00 6999.00 6999.00 6999.00

 HEAD WILL BE SAVED ON UNIT   58 AT END OF TIME STEP   15, STRESS PERIOD    4
1
  VOLUMETRIC BUDGET FOR ENTIRE MODEL AT END OF TIME STEP   15, STRESS PERIOD   4
  ------------------------------------------------------------------------------

     CUMULATIVE VOLUMES      L**3       RATES FOR THIS TIME STEP      L**3/T
     ------------------                 ------------------------

           IN:                                      IN:
           ---                                      ---
             STORAGE     =      219215.1250               STORAGE     =       8.0170E-03
       CONSTANT HEAD     =           0.0000         CONSTANT HEAD     =           0.0000
               WELLS     =           0.0000                 WELLS     =           0.0000
     HEAD DEP BOUNDS     =     2183557.2500       HEAD DEP BOUNDS     =           0.2077
      STREAM LEAKAGE     =   429568416.0000        STREAM LEAKAGE     =          38.6839
        UZF RECHARGE     =   170806688.0000          UZF RECHARGE     =          28.6006
               GW ET     =           0.0000                 GW ET     =           0.0000
     SURFACE LEAKAGE     =           0.0000       SURFACE LEAKAGE     =           0.0000

                TOTAL IN =   602777856.0000                  TOTAL IN =          67.5001

          OUT:                                     OUT:
          ----                                     ----
             STORAGE     =   117079576.0000               STORAGE     =          22.1175
       CONSTANT HEAD     =           0.0000         CONSTANT HEAD     =           0.0000
               WELLS     =   157679968.0000                 WELLS     =          10.0000
     HEAD DEP BOUNDS     =     2961113.2500       HEAD DEP BOUNDS     =           0.2864
      STREAM LEAKAGE     =    80829448.0000        STREAM LEAKAGE     =          10.9649
        UZF RECHARGE     =           0.0000          UZF RECHARGE     =           0.0000
               GW ET     =   244223264.0000                 GW ET     =          24.1305
     SURFACE LEAKAGE     =           0.0000       SURFACE LEAKAGE     =           0.0000

               TOTAL OUT =   602773376.0000                 TOTAL OUT =          67.4993

                IN - OUT =        4480.0000                  IN - OUT =       7.9346E-04

     PERCENT DISCREPANCY =           0.00         PERCENT DISCREPANCY =           0.00






         TIME SUMMARY AT END OF TIME STEP   15 IN STRESS PERIOD    4
                    SECONDS     MINUTES      HOURS       DAYS        YEARS
                    -----------------------------------------------------------
   TIME STEP LENGTH 3.14103E+05  5235.0      87.251      3.6354     9.95332E-03
 STRESS PERIOD TIME 2.62800E+06  43800.      730.00      30.417     8.32763E-02
         TOTAL TIME 1.05120E+07 1.75200E+05  2920.0      121.67     0.33311    
1
1
                            STRESS PERIOD NO.    5, LENGTH =   2628000.    
                            -----------------------------------------------

                              NUMBER OF TIME STEPS =    15

                               MULTIPLIER FOR DELT =     1.100

                            INITIAL TIME STEP SIZE =   82713.07    

 WELL NO.  LAYER   ROW   COL   STRESS RATE         
 --------------------------------------------------
      1      1      6      4      -3.000    
      2      1      6      5      -3.000    
      3      1      7      4      -3.000    
      4      1      7      5      -3.000    
      5      1      8      4      -3.000    
      6      1      8      5      -3.000    
      7      1      9      4      -3.000    
      8      1      9      5      -3.000    
      9      1     10      4      -3.000    
     10      1     10      5      -3.000    

     10 WELLS

 REUSING NON-PARAMETER GHB CELLS FROM LAST STRESS PERIOD

      2 GHB CELLS

 REUSING STREAM SEGMENT DATA FROM LAST STRESS PERIOD



            AREAL INFILTRATION RATE
 READING ON UNIT   19 WITH FORMAT: (10F4.0)            

            1           2           3           4           5           6           7           8           9          10
 ........................................................................................................................
   1   5.0000E-09  1.0000E-08   0.000       0.000       0.000       0.000       0.000       0.000       0.000       0.000    
   2   1.0000E-08  5.0000E-09  1.0000E-08   0.000       0.000      4.0000E-08  4.0000E-08  2.5000E-08   0.000       0.000    
   3    0.000      2.5000E-08  5.0000E-09  5.0000E-09  4.0000E-08  4.0000E-08  2.5000E-08  2.5000E-08   0.000       0.000    
   4   4.0000E-08  2.5000E-08  5.0000E-09  5.0000E-09  5.0000E-09  5.0000E-09  5.0000E-09  5.0000E-09  1.0000E-08   0.000    
   5   4.0000E-08  2.5000E-08  5.0000E-09  5.0000E-09  5.0000E-09  5.0000E-09  5.0000E-09  5.0000E-09  5.0000E-09  5.0000E-09
   6   4.0000E-08  2.5000E-08  2.5000E-08  1.0000E-08  1.0000E-08  5.0000E-09  5.0000E-09  5.0000E-09  5.0000E-09  2.5000E-08
   7   4.0000E-08  2.5000E-08  2.5000E-08  1.0000E-08  1.0000E-08  5.0000E-09  5.0000E-09  1.0000E-08  1.0000E-08   0.000    
   8    0.000      2.5000E-08  2.5000E-08  1.0000E-08  1.0000E-08  5.0000E-09  5.0000E-09  1.0000E-08  2.5000E-08   0.000    
   9    0.000      2.5000E-08  2.5000E-08  1.0000E-08  1.0000E-08  5.0000E-09  5.0000E-09  1.0000E-08  2.5000E-08   0.000    
  10    0.000      2.5000E-08  2.5000E-08  1.0000E-08  1.0000E-08  5.0000E-09  5.0000E-09  1.0000E-08  2.5000E-08  4.0000E-08
  11    0.000      5.0000E-09  5.0000E-09  5.0000E-09  5.0000E-09  5.0000E-09  5.0000E-09  1.0000E-08  2.5000E-08   0.000    
  12   5.0000E-09  5.0000E-09  5.0000E-09  5.0000E-09  5.0000E-09  5.0000E-09  5.0000E-09  5.0000E-09  1.0000E-08   0.000    
  13   5.0000E-09  5.0000E-09  1.0000E-08  1.0000E-08  1.0000E-08  1.0000E-08  1.0000E-08  5.0000E-09  5.0000E-09   0.000    
  14    0.000      1.0000E-08  2.5000E-08  2.5000E-08  2.5000E-08  2.5000E-08  2.5000E-08  1.0000E-08  5.0000E-09   0.000    
  15    0.000       0.000      4.0000E-08  4.0000E-08  4.0000E-08  4.0000E-08   0.000       0.000       0.000       0.000    

USING ET RATE FROM PREVIOUS STRESS PERIOD. CURRENT PERIOD IS:       5

 USING ET EXTINCTION DEPTH FROM PREVIOUS STRESS PERIOD. CURRENT PERIOD IS:       5

 USING EXTINCTION WATER CONTENT FROM PREVIOUS STRESS PERIOD. CURRENT PERIOD IS:       5
 
 SOLVING FOR HEAD 
                                                   Max.-Head-Change                         Max.-Flux-Residual
  Residual-Control   Outer-Iter.   Inner-Iter.     Column Row Layer    Maximum-Head-Change  Column Row Layer    Maximum-Flux-Residual          L2-NORM 
          0                 1           2             5   10     1      -0.2196040580E-01       5   10    1        -0.1212125200E+01      0.3973452605E+01
          0                 2           2             7    3     1       0.7883573706E-02       7    3    1         0.2225037178E+00      0.4276853989E+00
          0                 3           2             6    3     1       0.4075407610E-02       6    3    1         0.1154491848E+00      0.1824518463E+00
          0                 4           2             6    3     1       0.2167877742E-02       6    3    1         0.6142476225E-01      0.9204290196E-01
          0                 5           2             6    3     1       0.1153031367E-02       6    3    1         0.3267311851E-01      0.4715174067E-01
          0                 6           1             6    3     1       0.6131988171E-03       6    3    1         0.1737758020E-01      0.2437328385E-01
          0                 7           1             6    3     1       0.3260790796E-03       6    3    1         0.9241495708E-02      0.1268383934E-01
          0                 8           1             6    3     1       0.1733851451E-03       6    3    1         0.4914258698E-02      0.6634760268E-02
          0                 9           1             6    3     1       0.9218770039E-04       6    3    1         0.2613015171E-02      0.3484332044E-02

    ------------------------------------------------
       NWT REQUIRED            9 OUTER ITERATIONS 
       AND A TOTAL OF         14 INNER ITERATIONS.
    ------------------------------------------------

 NO OUTPUT CONTROL FOR STRESS PERIOD    5   TIME STEP    1
 
 SOLVING FOR HEAD 
                                                   Max.-Head-Change                         Max.-Flux-Residual
  Residual-Control   Outer-Iter.   Inner-Iter.     Column Row Layer    Maximum-Head-Change  Column Row Layer    Maximum-Flux-Residual          L2-NORM 
          0                 1           2             5   10     1      -0.2503952922E-01       5   10    1        -0.1256736192E+01      0.4087036648E+01
          0                 2           2             7    3     1       0.8189963721E-02       7    3    1         0.2106764063E+00      0.4935578001E+00
          0                 3           2             6    3     1       0.4127737635E-02       6    3    1         0.1067206671E+00      0.1501999497E+00
          0                 4           2             6    3     1       0.2185535191E-02       6    3    1         0.5651578870E-01      0.7293720711E-01
          0                 5           2             6    3     1       0.1157064034E-02       6    3    1         0.2992273685E-01      0.3642730748E-01
          0                 6           1             6    3     1       0.6125212398E-03       6    3    1         0.1584144932E-01      0.1841681516E-01
          0                 7           1             6    3     1       0.3242316276E-03       6    3    1         0.8385965217E-02      0.9403163231E-02
          0                 8           1             6    3     1       0.1716187334E-03       6    3    1         0.4438975759E-02      0.4839820828E-02
          0                 9           1             6    3     1       0.9083491703E-04       6    3    1         0.2349569218E-02      0.2507402433E-02

    ------------------------------------------------
       NWT REQUIRED            9 OUTER ITERATIONS 
       AND A TOTAL OF         14 INNER ITERATIONS.
    ------------------------------------------------

 NO OUTPUT CONTROL FOR STRESS PERIOD    5   TIME STEP    2
 
 SOLVING FOR HEAD 
                                                   Max.-Head-Change                         Max.-Flux-Residual
  Residual-Control   Outer-Iter.   Inner-Iter.     Column Row Layer    Maximum-Head-Change  Column Row Layer    Maximum-Flux-Residual          L2-NORM 
          0                 1           2             5    3     1      -0.7845200706E-01       5    3    1        -0.1853780916E+01      0.4470726714E+01
          0                 2           2             5    3     1      -0.2819764412E-01       5    3    1        -0.6661427133E+00      0.8158987070E+00
          0                 3           2             5    3     1      -0.1013623163E-01       5    3    1        -0.2394411169E+00      0.2694565074E+00
          0                 4           2             5    3     1      -0.3644058236E-02       5    3    1        -0.8607352759E-01      0.1017949163E+00
          0                 5           1             5    3     1      -0.1310228597E-02       5    3    1        -0.3094484803E-01      0.3943031946E-01
          0                 6           1             5    3     1      -0.4711666570E-03       5    3    1        -0.1112658431E-01      0.1565070002E-01
          0                 7           1             5    3     1      -0.1694666144E-03       5    3    1        -0.4001329068E-02      0.6372870529E-02
          0                 8           1             7    3     1       0.7039985986E-04       7    3    1         0.1654443060E-02      0.2659088576E-02

    ------------------------------------------------
       NWT REQUIRED            8 OUTER ITERATIONS 
       AND A TOTAL OF         12 INNER ITERATIONS.
    ------------------------------------------------

 NO OUTPUT CONTROL FOR STRESS PERIOD    5   TIME STEP    3
 
 SOLVING FOR HEAD 
                                                   Max.-Head-Change                         Max.-Flux-Residual
  Residual-Control   Outer-Iter.   Inner-Iter.     Column Row Layer    Maximum-Head-Change  Column Row Layer    Maximum-Flux-Residual          L2-NORM 
          0                 1           2             5    3     1      -0.1098634655E+00       5    3    1        -0.2367047932E+01      0.4946160018E+01
          0                 2           2             5    3     1      -0.3517368314E-01       5    3    1        -0.7578478619E+00      0.1081218525E+01
          0                 3           2             6    3     1      -0.1182253949E-01       6    3    1        -0.2545425633E+00      0.2901591190E+00
          0                 4           2             6    3     1      -0.4635452334E-02       6    3    1        -0.9986991510E-01      0.1050584438E+00
          0                 5           2             6    3     1      -0.1817431260E-02       6    3    1        -0.3915119407E-01      0.4126150000E-01
          0                 6           1             6    3     1      -0.7125318994E-03       6    3    1        -0.1535037541E-01      0.1633665806E-01
          0                 7           1             6    3     1      -0.2793366736E-03       6    3    1        -0.6018101655E-02      0.6481666324E-02
          0                 8           1             6    3     1      -0.1095030410E-03       6    3    1        -0.2359276666E-02      0.2577622002E-02
          0                 9           1             6    3     1      -0.4292358780E-04       6    3    1        -0.9248508181E-03      0.1028227351E-02

    ------------------------------------------------
       NWT REQUIRED            9 OUTER ITERATIONS 
       AND A TOTAL OF         14 INNER ITERATIONS.
    ------------------------------------------------

 NO OUTPUT CONTROL FOR STRESS PERIOD    5   TIME STEP    4
 
 SOLVING FOR HEAD 
                                                   Max.-Head-Change                         Max.-Flux-Residual
  Residual-Control   Outer-Iter.   Inner-Iter.     Column Row Layer    Maximum-Head-Change  Column Row Layer    Maximum-Flux-Residual          L2-NORM 
          0                 1           2             5    3     1      -0.1303452832E+00       5    3    1        -0.2562777266E+01      0.5184938792E+01
          0                 2           2             6    3     1      -0.3708069454E-01       6    3    1        -0.7281158862E+00      0.1022400492E+01
          0                 3           2             6    3     1      -0.1321779416E-01       6    3    1        -0.2598101302E+00      0.2724801606E+00
          0                 4           2             6    3     1      -0.4711833651E-02       6    3    1        -0.9258701852E-01      0.9443786828E-01
          0                 5           2             6    3     1      -0.1369598757E-02       6    3    1        -0.2691147221E-01      0.2773241509E-01
          0                 6           1             6    3     1       0.1317762734E-03       6    3    1         0.2691140473E-02      0.3683562120E-02
          0                 7           1             7    3     1      -0.4813804314E-04       7    3    1        -0.9399174248E-03      0.9615360456E-03

    ------------------------------------------------
       NWT REQUIRED            7 OUTER ITERATIONS 
       AND A TOTAL OF         12 INNER ITERATIONS.
    ------------------------------------------------

 OUTPUT CONTROL FOR STRESS PERIOD    5   TIME STEP    5
    PRINT BUDGET
    SAVE BUDGET

            WELLS   PERIOD    5   STEP   5
 WELL      1   LAYER   1   ROW     6   COL     4   RATE    -3.00000    
 WELL      2   LAYER   1   ROW     6   COL     5   RATE    -3.00000    
 WELL      3   LAYER   1   ROW     7   COL     4   RATE    -3.00000    
 WELL      4   LAYER   1   ROW     7   COL     5   RATE    -3.00000    
 WELL      5   LAYER   1   ROW     8   COL     4   RATE    -3.00000    
 WELL      6   LAYER   1   ROW     8   COL     5   RATE    -3.00000    
 WELL      7   LAYER   1   ROW     9   COL     4   RATE    -3.00000    
 WELL      8   LAYER   1   ROW     9   COL     5   RATE    -3.00000    
 WELL      9   LAYER   1   ROW    10   COL     4   RATE    -3.00000    
 WELL     10   LAYER   1   ROW    10   COL     5   RATE    -3.00000    

  HEAD DEP BOUNDS   PERIOD    5   STEP     5
 BOUNDARY      1   LAYER   1   ROW    13   COL     1   RATE   -0.286995    
 BOUNDARY      2   LAYER   1   ROW    14   COL     9   RATE    0.207694    



 STREAM LISTING     PERIOD      5   STEP        5

 LAYER ROW COL. STREAM  RCH.  FLOW INTO     FLOW TO   FLOW OUT OF   OVRLND.     DIRECT     STREAM       STREAM     STREAM     STREAM   STREAMBED  STREAMBED
                SEG.NO.  NO.  STRM. RCH.    AQUIFER    STRM. RCH.    RUNOFF     PRECIP       ET          HEAD       DEPTH      WIDTH   CONDCTNC.   GRADIENT

   1    1    1     1     1    2.5000E+01  1.1993E+00   2.3801E+01  0.000E+00  0.000E+00  0.000E+00  1.09422E+03  1.171E+00  1.294E+01  5.824E-01  6.864E-01
   1    2    2     1     2    2.3801E+01  2.7388E+00   2.1062E+01  0.000E+00  0.000E+00  0.000E+00  1.08920E+03  1.141E+00  1.253E+01  8.774E-01  1.040E+00
   1    3    3     1     3    2.1062E+01  2.9182E+00   1.8144E+01  0.000E+00  0.000E+00  0.000E+00  1.08351E+03  1.094E+00  1.188E+01  7.129E-01  1.365E+00
   1    3    4     1     4    1.8144E+01  2.4794E+00   1.5664E+01  0.000E+00  0.000E+00  0.000E+00  1.07846E+03  1.048E+00  1.104E+01  6.125E-01  1.349E+00
   1    4    5     2     1    5.6644E+00  2.6689E+00   2.9954E+00  0.000E+00  0.000E+00  0.000E+00  1.07236E+03  4.217E-01  1.200E+01  7.800E-01  1.141E+00
   1    5    6     2     2    2.9954E+00  1.9599E+00   1.0355E+00  0.000E+00  0.000E+00  0.000E+00  1.06678E+03  2.665E-01  1.200E+01  6.000E-01  1.089E+00
   1    6    6     2     3    1.0355E+00  1.0355E+00   0.0000E+00  0.000E+00  0.000E+00  0.000E+00  1.06183E+03  4.022E-02  1.200E+01  6.000E-01  1.013E+00
   1    7    6     2     4    0.0000E+00  0.0000E+00   0.0000E+00  0.000E+00  0.000E+00  0.000E+00  1.05708E+03  0.000E+00  1.200E+01  6.000E-01  1.000E+00
   1    8    6     2     5    0.0000E+00  0.0000E+00   0.0000E+00  0.000E+00  0.000E+00  0.000E+00  1.05236E+03  0.000E+00  1.200E+01  6.000E-01  1.000E+00
   1    3    5     3     1    1.0000E+01 -2.4747E-01   1.0247E+01  0.000E+00  0.000E+00  0.000E+00  1.07555E+03  1.909E+00  9.636E+00  7.227E-01 -1.712E-01
   1    3    6     3     2    1.0247E+01 -4.9394E-01   1.0741E+01  0.000E+00  0.000E+00  0.000E+00  1.07264E+03  1.727E+00  8.909E+00  6.682E-01 -3.696E-01
   1    3    7     3     3    1.0741E+01 -1.2548E-01   1.0867E+01  0.000E+00  0.000E+00  0.000E+00  1.06987E+03  1.555E+00  8.218E+00  5.547E-01 -1.131E-01
   1    4    8     3     4    1.0867E+01  1.6259E+00   9.2410E+00  0.000E+00  0.000E+00  0.000E+00  1.06682E+03  1.364E+00  7.455E+00  6.709E-01  1.212E+00
   1    5    8     3     5    9.2410E+00  1.5790E+00   7.6620E+00  0.000E+00  0.000E+00  0.000E+00  1.06362E+03  1.164E+00  6.655E+00  4.991E-01  1.582E+00
   1    6    8     3     6    7.6620E+00  5.5980E-01   7.1022E+00  0.000E+00  0.000E+00  0.000E+00  1.06158E+03  1.036E+00  6.145E+00  1.844E-01  1.518E+00
   1    5   10     4     1    1.0000E+01  9.0525E-01   9.0947E+00  0.000E+00  0.000E+00  0.000E+00  1.07835E+03  6.210E-01  1.000E+01  2.500E-01  1.207E+00
   1    5    9     4     2    9.0947E+00  1.7835E+00   7.3113E+00  0.000E+00  0.000E+00  0.000E+00  1.07148E+03  5.670E-01  1.000E+01  5.000E-01  1.189E+00
   1    6    8     4     3    7.3113E+00  1.2257E+00   6.0855E+00  0.000E+00  0.000E+00  0.000E+00  1.06368E+03  5.021E-01  1.000E+01  3.500E-01  1.167E+00
   1    6    8     5     1    1.3188E+01  5.6792E-01   1.2620E+01  0.000E+00  0.000E+00  0.000E+00  1.05873E+03  7.343E-01  1.763E+01  7.051E-01  2.685E-01
   1    7    7     5     2    1.2620E+01  1.7617E+00   1.0858E+01  0.000E+00  0.000E+00  0.000E+00  1.05421E+03  7.104E-01  1.666E+01  8.328E-01  7.051E-01
   1    8    7     5     3    1.0858E+01  1.3745E+00   9.4837E+00  0.000E+00  0.000E+00  0.000E+00  1.04993E+03  6.756E-01  1.528E+01  5.349E-01  8.566E-01
   1    8    6     5     4    9.4837E+00  1.2800E+00   8.2037E+00  0.000E+00  0.000E+00  0.000E+00  1.04689E+03  6.433E-01  1.405E+01  3.513E-01  1.214E+00
   1    9    6     6     1    8.2037E+00  2.1435E+00   6.0602E+00  0.000E+00  0.000E+00  0.000E+00  1.04330E+03  5.753E-01  1.200E+01  6.000E-01  1.191E+00
   1   10    7     6     2    6.0602E+00  1.4272E+00   4.6330E+00  0.000E+00  0.000E+00  0.000E+00  1.03867E+03  4.840E-01  1.200E+01  6.000E-01  7.929E-01
   1   11    7     6     3    4.6330E+00  1.3176E+00   3.3154E+00  0.000E+00  0.000E+00  0.000E+00  1.03404E+03  4.051E-01  1.200E+01  6.000E-01  7.320E-01
   1   12    7     6     4    3.3154E+00  1.0061E+00   2.3093E+00  0.000E+00  0.000E+00  0.000E+00  1.02942E+03  3.292E-01  1.200E+01  6.000E-01  5.589E-01
   1   13    7     6     5    2.3093E+00 -7.8779E-01   3.0971E+00  0.000E+00  0.000E+00  0.000E+00  1.02623E+03  3.214E-01  1.200E+01  2.400E-01 -1.094E+00
   1   14    9     7     1    1.5000E+02  1.8601E+00   1.4814E+02  0.000E+00  0.000E+00  0.000E+00  1.03987E+03  2.286E+00  5.529E+01  5.592E+00  1.109E-01
   1   13    8     7     2    1.4814E+02  1.8788E+00   1.4626E+02  0.000E+00  0.000E+00  0.000E+00  1.03478E+03  2.276E+00  5.524E+01  6.146E+00  1.019E-01
   1   13    7     7     3    1.4626E+02  9.7774E-01   1.4528E+02  0.000E+00  0.000E+00  0.000E+00  1.02969E+03  2.269E+00  5.521E+01  5.584E+00  5.837E-02
   1   13    6     8     1    1.4838E+02 -1.9752E-01   1.4858E+02  0.000E+00  0.000E+00  0.000E+00  1.02468E+03  2.806E+00  4.069E+01  4.146E+00 -1.588E-02
   1   13    5     8     2    1.4858E+02 -9.3346E-01   1.4951E+02  0.000E+00  0.000E+00  0.000E+00  1.01844E+03  2.810E+00  4.075E+01  4.152E+00 -7.494E-02
   1   13    4     8     3    1.4951E+02 -1.7607E+00   1.5127E+02  0.000E+00  0.000E+00  0.000E+00  1.01219E+03  2.820E+00  4.088E+01  4.166E+00 -1.409E-01
   1   13    3     8     4    1.5127E+02 -2.4152E+00   1.5369E+02  0.000E+00  0.000E+00  0.000E+00  1.00596E+03  2.834E+00  4.110E+01  4.188E+00 -1.922E-01
   1   13    2     8     5    1.5369E+02 -1.7495E+00   1.5544E+02  0.000E+00  0.000E+00  0.000E+00  9.99724E+02  2.849E+00  4.131E+01  4.209E+00 -1.385E-01
   1   13    1     8     6    1.5544E+02 -2.0695E+00   1.5751E+02  0.000E+00  0.000E+00  0.000E+00  9.94737E+02  2.862E+00  4.150E+01  2.537E+00 -2.719E-01



 UBDSV3 SAVING "           GW ET" ON UNIT  61 AT TIME STEP  5, STRESS PERIOD   5
 UBDSV3 SAVING "    UZF RECHARGE" ON UNIT  61 AT TIME STEP  5, STRESS PERIOD   5
 UBDSV3 SAVING " SURFACE LEAKAGE" ON UNIT  61 AT TIME STEP  5, STRESS PERIOD   5
 UBDSV3 SAVING "       HORT+DUNN" ON UNIT  61 AT TIME STEP  5, STRESS PERIOD   5
 UBDSV3 SAVING "  STORAGE CHANGE" ON UNIT  61 AT TIME STEP  5, STRESS PERIOD   5


UNSATURATED ZONE PACKAGE VOLUMETRIC BUDGET FOR  TIME STEP     5 STRESS PERIOD    5
  ------------------------------------------------------------------------------



     CUMULATIVE VOLUMES      L**3       RATES FOR THIS TIME STEP      L**3/T
     ------------------                 ------------------------

           IN:                                      IN:
           ---                                      ---
        INFILTRATION =   890017801.6006          INFILTRATION =          42.3750

          OUT:                                     OUT:
          ----                                     ----
              UZF ET =        1318.2898                UZF ET =           0.0032
        UZF RECHARGE =   181264140.1814          UZF RECHARGE =          16.2222

            IN - OUT =   708752343.1294              IN - OUT =          26.1497

          STORAGE:                                 STORAGE:
          --------                                 --------
      STORAGE CHANGE =   708720277.6306        STORAGE CHANGE =          26.1497

 PERCENT DISCREPANCY IS DIFFERENCE BETWEEN IN-OUT MINUS CHANGE IN STORAGE
 DIVIDED BY THE AVERAGE OF IN AND OUT TIMES 100

 PERCENT DISCREPANCY =           0.00     PERCENT DISCREPANCY =           0.00






1
  VOLUMETRIC BUDGET FOR ENTIRE MODEL AT END OF TIME STEP    5, STRESS PERIOD   5
  ------------------------------------------------------------------------------

     CUMULATIVE VOLUMES      L**3       RATES FOR THIS TIME STEP      L**3/T
     ------------------                 ------------------------

           IN:                                      IN:
           ---                                      ---
             STORAGE     =     8136403.0000               STORAGE     =          18.8416
       CONSTANT HEAD     =           0.0000         CONSTANT HEAD     =           0.0000
               WELLS     =           0.0000                 WELLS     =           0.0000
     HEAD DEP BOUNDS     =     2288437.5000       HEAD DEP BOUNDS     =           0.2077
      STREAM LEAKAGE     =   449003392.0000        STREAM LEAKAGE     =          38.2742
        UZF RECHARGE     =   181264176.0000          UZF RECHARGE     =          16.2222
               GW ET     =           0.0000                 GW ET     =           0.0000
     SURFACE LEAKAGE     =           0.0000       SURFACE LEAKAGE     =           0.0000

                TOTAL IN =   640692416.0000                  TOTAL IN =          73.5457

          OUT:                                     OUT:
          ----                                     ----
             STORAGE     =   121958288.0000               STORAGE     =           8.3509
       CONSTANT HEAD     =           0.0000         CONSTANT HEAD     =           0.0000
               WELLS     =   172829120.0000                 WELLS     =          30.0000
     HEAD DEP BOUNDS     =     3105930.5000       HEAD DEP BOUNDS     =           0.2870
      STREAM LEAKAGE     =    86378408.0000        STREAM LEAKAGE     =          10.7806
        UZF RECHARGE     =           0.0000          UZF RECHARGE     =           0.0000
               GW ET     =   256415904.0000                 GW ET     =          24.1275
     SURFACE LEAKAGE     =           0.0000       SURFACE LEAKAGE     =           0.0000

               TOTAL OUT =   640687616.0000                 TOTAL OUT =          73.5460

                IN - OUT =        4800.0000                  IN - OUT =      -3.0518E-04

     PERCENT DISCREPANCY =           0.00         PERCENT DISCREPANCY =          -0.00






         TIME SUMMARY AT END OF TIME STEP    5 IN STRESS PERIOD    5
                    SECONDS     MINUTES      HOURS       DAYS        YEARS
                    -----------------------------------------------------------
   TIME STEP LENGTH 1.21100E+05  2018.3      33.639      1.4016     3.83743E-03
 STRESS PERIOD TIME 5.04972E+05  8416.2      140.27      5.8446     1.60016E-02
         TOTAL TIME 1.10170E+07 1.83616E+05  3060.3      127.51     0.34911    
1
 
 SOLVING FOR HEAD 
                                                   Max.-Head-Change                         Max.-Flux-Residual
  Residual-Control   Outer-Iter.   Inner-Iter.     Column Row Layer    Maximum-Head-Change  Column Row Layer    Maximum-Flux-Residual          L2-NORM 
          0                 1           2             5    3     1      -0.1485035902E+00       5    3    1        -0.2665932978E+01      0.5347043232E+01
          0                 2           2             6    3     1      -0.4024657177E-01       6    3    1        -0.7216858716E+00      0.9232865153E+00
          0                 3           2             7    3     1      -0.5009491580E-02       7    3    1        -0.8920242529E-01      0.1182841363E+00
          0                 4           1             7    3     1      -0.1651776113E-02       7    3    1        -0.2945141256E-01      0.3103182220E-01
          0                 5           1             7    3     1      -0.5446667920E-03       7    3    1        -0.9707347532E-02      0.9887244695E-02
          0                 6           1             7    3     1      -0.1796068441E-03       7    3    1        -0.3201265233E-02      0.3234741346E-02
          0                 7           1             7    3     1      -0.5922729475E-04       7    3    1        -0.1055622846E-02      0.1063527920E-02

    ------------------------------------------------
       NWT REQUIRED            7 OUTER ITERATIONS 
       AND A TOTAL OF         10 INNER ITERATIONS.
    ------------------------------------------------

 NO OUTPUT CONTROL FOR STRESS PERIOD    5   TIME STEP    6
 
 SOLVING FOR HEAD 
                                                   Max.-Head-Change                         Max.-Flux-Residual
  Residual-Control   Outer-Iter.   Inner-Iter.     Column Row Layer    Maximum-Head-Change  Column Row Layer    Maximum-Flux-Residual          L2-NORM 
          0                 1           2             5    3     1      -0.1635114321E+00       5    3    1        -0.2681369142E+01      0.5436226766E+01
          0                 2           2             6    3     1      -0.3592754477E-01       6    3    1        -0.5884951128E+00      0.7969749293E+00
          0                 3           2             7    3     1      -0.5884334059E-02       7    3    1        -0.9584414453E-01      0.1220976055E+00
          0                 4           1             7    3     1      -0.1755517876E-02       7    3    1        -0.2855906580E-01      0.3020898630E-01
          0                 5           1             7    3     1      -0.5237626148E-03       7    3    1        -0.8522627280E-02      0.8795345345E-02
          0                 6           1             7    3     1      -0.1562702082E-03       7    3    1        -0.2542648189E-02      0.2595579085E-02
          0                 7           1             7    3     1      -0.4662572021E-04       7    3    1        -0.7586402413E-03      0.7709386368E-03

    ------------------------------------------------
       NWT REQUIRED            7 OUTER ITERATIONS 
       AND A TOTAL OF         10 INNER ITERATIONS.
    ------------------------------------------------

 NO OUTPUT CONTROL FOR STRESS PERIOD    5   TIME STEP    7
 
 SOLVING FOR HEAD 
                                                   Max.-Head-Change                         Max.-Flux-Residual
  Residual-Control   Outer-Iter.   Inner-Iter.     Column Row Layer    Maximum-Head-Change  Column Row Layer    Maximum-Flux-Residual          L2-NORM 
          0                 1           2             5    3     1      -0.1744564354E+00       5    3    1        -0.2614525541E+01      0.5730416615E+01
          0                 2           2             7   14     1       0.6047551089E-01       7   14    1         0.8621240310E+00      0.1087708327E+01
          0                 3           2             7   14     1       0.2803086099E-01       7   14    1         0.3996108155E+00      0.4136550582E+00
          0                 4           2             7   14     1       0.1299248835E-01       7   14    1         0.1852227961E+00      0.1872462057E+00
          0                 5           2             7   14     1       0.6022101676E-02       7   14    1         0.8585216620E-01      0.8621921211E-01
          0                 6           2             7   14     1       0.2791282445E-02       7   14    1         0.3979305961E-01      0.3986141046E-01
          0                 7           1             7   14     1       0.1293777089E-02       7   14    1         0.1844434390E-01      0.1845730887E-01
          0                 8           1             7   14     1       0.5996738676E-03       7   14    1         0.8549071683E-02      0.8551650293E-02
          0                 9           1             7   14     1       0.2779526808E-03       7   14    1         0.3962549176E-02      0.3963185898E-02
          0                10           1             7   14     1       0.1288328157E-03       7   14    1         0.1836667081E-02      0.1836969402E-02
          0                11           1             7   14     1       0.5971482195E-04       7   14    1         0.8513066994E-03      0.8516046801E-03

    ------------------------------------------------
       NWT REQUIRED           11 OUTER ITERATIONS 
       AND A TOTAL OF         17 INNER ITERATIONS.
    ------------------------------------------------

 NO OUTPUT CONTROL FOR STRESS PERIOD    5   TIME STEP    8
 
 SOLVING FOR HEAD 
                                                   Max.-Head-Change                         Max.-Flux-Residual
  Residual-Control   Outer-Iter.   Inner-Iter.     Column Row Layer    Maximum-Head-Change  Column Row Layer    Maximum-Flux-Residual          L2-NORM 
          0                 1           2             7   14     1       0.1811529759E+00       5    3    1        -0.2470830907E+01      0.5814011232E+01
          0                 2           2             7   14     1       0.8385849483E-01       7   14    1         0.1088113457E+01      0.1251559235E+01
          0                 3           2             7   14     1       0.3881849864E-01       7   14    1         0.5036110703E+00      0.5138489092E+00
          0                 4           2             7   14     1       0.1796922857E-01       7   14    1         0.2331342653E+00      0.2343715374E+00
          0                 5           2             7   14     1       0.8318021882E-02       7   14    1         0.1079180958E+00      0.1080959569E+00
          0                 6           2             7   14     1       0.3850443130E-02       7   14    1         0.4995584070E-01      0.4998206339E-01
          0                 7           1             7   14     1       0.1782384501E-02       7   14    1         0.2312474893E-01      0.2312878210E-01
          0                 8           1             7   14     1       0.8250725027E-03       7   14    1         0.1070453669E-01      0.1070525427E-01
          0                 9           1             7   14     1       0.3819291649E-03       7   14    1         0.4955170998E-02      0.4955374254E-02
          0                10           1             7   14     1       0.1767964469E-03       7   14    1         0.2293767430E-02      0.2293897981E-02
          0                11           1             7   14     1       0.8183977515E-04       7   14    1         0.1061793599E-02      0.1061930762E-02

    ------------------------------------------------
       NWT REQUIRED           11 OUTER ITERATIONS 
       AND A TOTAL OF         17 INNER ITERATIONS.
    ------------------------------------------------

 NO OUTPUT CONTROL FOR STRESS PERIOD    5   TIME STEP    9
 
 SOLVING FOR HEAD 
                                                   Max.-Head-Change                         Max.-Flux-Residual
  Residual-Control   Outer-Iter.   Inner-Iter.     Column Row Layer    Maximum-Head-Change  Column Row Layer    Maximum-Flux-Residual          L2-NORM 
          0                 1           2             7   14     1       0.1944877557E+00       7   14    1         0.2294076834E+01      0.5615879173E+01
          0                 2           2             7   14     1       0.8990183443E-01       7   14    1         0.1061794704E+01      0.1223449109E+01
          0                 3           2             7   14     1       0.4155595382E-01       7   14    1         0.4906892990E+00      0.4999572575E+00
          0                 4           2             7   14     1       0.1920868012E-01       7   14    1         0.2268283045E+00      0.2278897292E+00
          0                 5           2             7   14     1       0.8878962612E-02       7   14    1         0.1048474497E+00      0.1049970515E+00
          0                 6           2             7   14     1       0.4104189194E-02       7   14    1         0.4846458516E-01      0.4848632355E-01
          0                 7           1             7   14     1       0.1897111009E-02       7   14    1         0.2240215396E-01      0.2240545872E-01
          0                 8           1             7   14     1       0.8769165340E-03       7   14    1         0.1035512579E-01      0.1035571107E-01
          0                 9           1             7   14     1       0.4053440833E-03       7   14    1         0.4786532054E-02      0.4786700099E-02
          0                10           1             7   14     1       0.1873654730E-03       7   14    1         0.2212516880E-02      0.2212622862E-02
          0                11           1             7   14     1       0.8660738336E-04       7   14    1         0.1022709668E-02      0.1022809283E-02

    ------------------------------------------------
       NWT REQUIRED           11 OUTER ITERATIONS 
       AND A TOTAL OF         17 INNER ITERATIONS.
    ------------------------------------------------

 OUTPUT CONTROL FOR STRESS PERIOD    5   TIME STEP   10
    PRINT BUDGET
    SAVE BUDGET

            WELLS   PERIOD    5   STEP  10
 WELL      1   LAYER   1   ROW     6   COL     4   RATE    -3.00000    
 WELL      2   LAYER   1   ROW     6   COL     5   RATE    -3.00000    
 WELL      3   LAYER   1   ROW     7   COL     4   RATE    -3.00000    
 WELL      4   LAYER   1   ROW     7   COL     5   RATE    -3.00000    
 WELL      5   LAYER   1   ROW     8   COL     4   RATE    -3.00000    
 WELL      6   LAYER   1   ROW     8   COL     5   RATE    -3.00000    
 WELL      7   LAYER   1   ROW     9   COL     4   RATE    -3.00000    
 WELL      8   LAYER   1   ROW     9   COL     5   RATE    -3.00000    
 WELL      9   LAYER   1   ROW    10   COL     4   RATE    -3.00000    
 WELL     10   LAYER   1   ROW    10   COL     5   RATE    -3.00000    

  HEAD DEP BOUNDS   PERIOD    5   STEP    10
 BOUNDARY      1   LAYER   1   ROW    13   COL     1   RATE   -0.286983    
 BOUNDARY      2   LAYER   1   ROW    14   COL     9   RATE    0.207679    



 STREAM LISTING     PERIOD      5   STEP       10

 LAYER ROW COL. STREAM  RCH.  FLOW INTO     FLOW TO   FLOW OUT OF   OVRLND.     DIRECT     STREAM       STREAM     STREAM     STREAM   STREAMBED  STREAMBED
                SEG.NO.  NO.  STRM. RCH.    AQUIFER    STRM. RCH.    RUNOFF     PRECIP       ET          HEAD       DEPTH      WIDTH   CONDCTNC.   GRADIENT

   1    1    1     1     1    2.5000E+01  1.1992E+00   2.3801E+01  0.000E+00  0.000E+00  0.000E+00  1.09422E+03  1.171E+00  1.294E+01  5.824E-01  6.863E-01
   1    2    2     1     2    2.3801E+01  2.7377E+00   2.1063E+01  0.000E+00  0.000E+00  0.000E+00  1.08920E+03  1.141E+00  1.254E+01  8.775E-01  1.040E+00
   1    3    3     1     3    2.1063E+01  2.9183E+00   1.8145E+01  0.000E+00  0.000E+00  0.000E+00  1.08351E+03  1.094E+00  1.188E+01  7.129E-01  1.365E+00
   1    3    4     1     4    1.8145E+01  2.4795E+00   1.5665E+01  0.000E+00  0.000E+00  0.000E+00  1.07846E+03  1.048E+00  1.104E+01  6.126E-01  1.349E+00
   1    4    5     2     1    5.6654E+00  2.6690E+00   2.9964E+00  0.000E+00  0.000E+00  0.000E+00  1.07236E+03  4.218E-01  1.200E+01  7.800E-01  1.141E+00
   1    5    6     2     2    2.9964E+00  1.9600E+00   1.0364E+00  0.000E+00  0.000E+00  0.000E+00  1.06678E+03  2.666E-01  1.200E+01  6.000E-01  1.089E+00
   1    6    6     2     3    1.0364E+00  1.0364E+00   0.0000E+00  0.000E+00  0.000E+00  0.000E+00  1.06183E+03  4.024E-02  1.200E+01  6.000E-01  1.013E+00
   1    7    6     2     4    0.0000E+00  0.0000E+00   0.0000E+00  0.000E+00  0.000E+00  0.000E+00  1.05708E+03  0.000E+00  1.200E+01  6.000E-01  1.000E+00
   1    8    6     2     5    0.0000E+00  0.0000E+00   0.0000E+00  0.000E+00  0.000E+00  0.000E+00  1.05236E+03  0.000E+00  1.200E+01  6.000E-01  1.000E+00
   1    3    5     3     1    1.0000E+01  3.9179E-01   9.6082E+00  0.000E+00  0.000E+00  0.000E+00  1.07555E+03  1.909E+00  9.636E+00  7.227E-01  2.710E-01
   1    3    6     3     2    9.6082E+00  1.1952E-01   9.4887E+00  0.000E+00  0.000E+00  0.000E+00  1.07264E+03  1.727E+00  8.909E+00  6.682E-01  8.944E-02
   1    3    7     3     3    9.4887E+00  1.6657E-01   9.3221E+00  0.000E+00  0.000E+00  0.000E+00  1.06987E+03  1.555E+00  8.218E+00  5.547E-01  1.501E-01
   1    4    8     3     4    9.3221E+00  1.5176E+00   7.8045E+00  0.000E+00  0.000E+00  0.000E+00  1.06682E+03  1.364E+00  7.455E+00  6.709E-01  1.131E+00
   1    5    8     3     5    7.8045E+00  1.5790E+00   6.2255E+00  0.000E+00  0.000E+00  0.000E+00  1.06362E+03  1.164E+00  6.655E+00  4.991E-01  1.582E+00
   1    6    8     3     6    6.2255E+00  5.5980E-01   5.6657E+00  0.000E+00  0.000E+00  0.000E+00  1.06158E+03  1.036E+00  6.145E+00  1.844E-01  1.518E+00
   1    5   10     4     1    1.0000E+01  9.0525E-01   9.0947E+00  0.000E+00  0.000E+00  0.000E+00  1.07835E+03  6.210E-01  1.000E+01  2.500E-01  1.207E+00
   1    5    9     4     2    9.0947E+00  1.7835E+00   7.3113E+00  0.000E+00  0.000E+00  0.000E+00  1.07148E+03  5.670E-01  1.000E+01  5.000E-01  1.189E+00
   1    6    8     4     3    7.3113E+00  1.2257E+00   6.0855E+00  0.000E+00  0.000E+00  0.000E+00  1.06368E+03  5.021E-01  1.000E+01  3.500E-01  1.167E+00
   1    6    8     5     1    1.1751E+01  5.0015E-01   1.1251E+01  0.000E+00  0.000E+00  0.000E+00  1.05871E+03  7.053E-01  1.645E+01  6.581E-01  2.533E-01
   1    7    7     5     2    1.1251E+01  1.5907E+00   9.6604E+00  0.000E+00  0.000E+00  0.000E+00  1.05418E+03  6.822E-01  1.554E+01  7.769E-01  6.825E-01
   1    8    7     5     3    9.6604E+00  1.2403E+00   8.4201E+00  0.000E+00  0.000E+00  0.000E+00  1.04990E+03  6.483E-01  1.424E+01  4.984E-01  8.295E-01
   1    8    6     5     4    8.4201E+00  1.1810E+00   7.2391E+00  0.000E+00  0.000E+00  0.000E+00  1.04687E+03  6.165E-01  1.306E+01  3.266E-01  1.205E+00
   1    9    6     6     1    7.2391E+00  2.0964E+00   5.1427E+00  0.000E+00  0.000E+00  0.000E+00  1.04326E+03  5.285E-01  1.200E+01  6.000E-01  1.165E+00
   1   10    7     6     2    5.1427E+00  1.3823E+00   3.7604E+00  0.000E+00  0.000E+00  0.000E+00  1.03862E+03  4.336E-01  1.200E+01  6.000E-01  7.679E-01
   1   11    7     6     3    3.7604E+00  1.2288E+00   2.5316E+00  0.000E+00  0.000E+00  0.000E+00  1.03399E+03  3.521E-01  1.200E+01  6.000E-01  6.827E-01
   1   12    7     6     4    2.5316E+00  8.9846E-01   1.6331E+00  0.000E+00  0.000E+00  0.000E+00  1.02937E+03  2.749E-01  1.200E+01  6.000E-01  4.991E-01
   1   13    7     6     5    1.6331E+00 -8.0075E-01   2.4339E+00  0.000E+00  0.000E+00  0.000E+00  1.02618E+03  2.710E-01  1.200E+01  2.400E-01 -1.112E+00
   1   14    9     7     1    1.5000E+02  1.8580E+00   1.4814E+02  0.000E+00  0.000E+00  0.000E+00  1.03987E+03  2.286E+00  5.529E+01  5.592E+00  1.107E-01
   1   13    8     7     2    1.4814E+02  1.7712E+00   1.4637E+02  0.000E+00  0.000E+00  0.000E+00  1.03478E+03  2.277E+00  5.525E+01  6.146E+00  9.606E-02
   1   13    7     7     3    1.4637E+02  9.6164E-01   1.4541E+02  0.000E+00  0.000E+00  0.000E+00  1.02969E+03  2.269E+00  5.521E+01  5.584E+00  5.740E-02
   1   13    6     8     1    1.4784E+02 -1.9436E-01   1.4804E+02  0.000E+00  0.000E+00  0.000E+00  1.02468E+03  2.802E+00  4.063E+01  4.141E+00 -1.565E-02
   1   13    5     8     2    1.4804E+02 -6.5200E-01   1.4869E+02  0.000E+00  0.000E+00  0.000E+00  1.01843E+03  2.805E+00  4.068E+01  4.145E+00 -5.243E-02
   1   13    4     8     3    1.4869E+02 -1.4957E+00   1.5019E+02  0.000E+00  0.000E+00  0.000E+00  1.01219E+03  2.813E+00  4.079E+01  4.156E+00 -1.200E-01
   1   13    3     8     4    1.5019E+02 -2.1808E+00   1.5237E+02  0.000E+00  0.000E+00  0.000E+00  1.00595E+03  2.826E+00  4.097E+01  4.175E+00 -1.741E-01
   1   13    2     8     5    1.5237E+02 -1.7883E+00   1.5415E+02  0.000E+00  0.000E+00  0.000E+00  9.99715E+02  2.840E+00  4.117E+01  4.196E+00 -1.421E-01
   1   13    1     8     6    1.5415E+02 -2.0846E+00   1.5624E+02  0.000E+00  0.000E+00  0.000E+00  9.94728E+02  2.853E+00  4.137E+01  2.529E+00 -2.747E-01



 UBDSV3 SAVING "           GW ET" ON UNIT  61 AT TIME STEP 10, STRESS PERIOD   5
 UBDSV3 SAVING "    UZF RECHARGE" ON UNIT  61 AT TIME STEP 10, STRESS PERIOD   5
 UBDSV3 SAVING " SURFACE LEAKAGE" ON UNIT  61 AT TIME STEP 10, STRESS PERIOD   5
 UBDSV3 SAVING "       HORT+DUNN" ON UNIT  61 AT TIME STEP 10, STRESS PERIOD   5
 UBDSV3 SAVING "  STORAGE CHANGE" ON UNIT  61 AT TIME STEP 10, STRESS PERIOD   5


UNSATURATED ZONE PACKAGE VOLUMETRIC BUDGET FOR  TIME STEP    10 STRESS PERIOD    5
  ------------------------------------------------------------------------------



     CUMULATIVE VOLUMES      L**3       RATES FOR THIS TIME STEP      L**3/T
     ------------------                 ------------------------

           IN:                                      IN:
           ---                                      ---
        INFILTRATION =   924479771.5166          INFILTRATION =          42.3750

          OUT:                                     OUT:
          ----                                     ----
              UZF ET =        3893.3743                UZF ET =           0.0032
        UZF RECHARGE =   193941352.7855          UZF RECHARGE =          16.3900

            IN - OUT =   730534525.3568              IN - OUT =          25.9818

          STORAGE:                                 STORAGE:
          --------                                 --------
      STORAGE CHANGE =   730502458.9576        STORAGE CHANGE =          25.9818

 PERCENT DISCREPANCY IS DIFFERENCE BETWEEN IN-OUT MINUS CHANGE IN STORAGE
 DIVIDED BY THE AVERAGE OF IN AND OUT TIMES 100

 PERCENT DISCREPANCY =           0.00     PERCENT DISCREPANCY =           0.00






1
  VOLUMETRIC BUDGET FOR ENTIRE MODEL AT END OF TIME STEP   10, STRESS PERIOD   5
  ------------------------------------------------------------------------------

     CUMULATIVE VOLUMES      L**3       RATES FOR THIS TIME STEP      L**3/T
     ------------------                 ------------------------

           IN:                                      IN:
           ---                                      ---
             STORAGE     =    24494328.0000               STORAGE     =          19.9368
       CONSTANT HEAD     =           0.0000         CONSTANT HEAD     =           0.0000
               WELLS     =           0.0000                 WELLS     =           0.0000
     HEAD DEP BOUNDS     =     2457341.2500       HEAD DEP BOUNDS     =           0.2077
      STREAM LEAKAGE     =   479870304.0000        STREAM LEAKAGE     =          37.9577
        UZF RECHARGE     =   193941392.0000          UZF RECHARGE     =          16.3900
               GW ET     =           0.0000                 GW ET     =           0.0000
     SURFACE LEAKAGE     =           0.0000       SURFACE LEAKAGE     =           0.0000

                TOTAL IN =   700763392.0000                  TOTAL IN =          74.4923

          OUT:                                     OUT:
          ----                                     ----
             STORAGE     =   129918552.0000               STORAGE     =          11.0341
       CONSTANT HEAD     =           0.0000         CONSTANT HEAD     =           0.0000
               WELLS     =   197226976.0000                 WELLS     =          30.0000
     HEAD DEP BOUNDS     =     3339463.5000       HEAD DEP BOUNDS     =           0.2870
      STREAM LEAKAGE     =    94310392.0000        STREAM LEAKAGE     =           9.1965
        UZF RECHARGE     =           0.0000          UZF RECHARGE     =           0.0000
               GW ET     =   275963008.0000                 GW ET     =          23.9742
     SURFACE LEAKAGE     =           0.0000       SURFACE LEAKAGE     =           0.0000

               TOTAL OUT =   700758400.0000                 TOTAL OUT =          74.4918

                IN - OUT =        4992.0000                  IN - OUT =       5.0354E-04

     PERCENT DISCREPANCY =           0.00         PERCENT DISCREPANCY =           0.00






         TIME SUMMARY AT END OF TIME STEP   10 IN STRESS PERIOD    5
                    SECONDS     MINUTES      HOURS       DAYS        YEARS
                    -----------------------------------------------------------
   TIME STEP LENGTH 1.95033E+05  3250.6      54.176      2.2573     6.18023E-03
 STRESS PERIOD TIME 1.31823E+06  21971.      366.18      15.257     4.17723E-02
         TOTAL TIME 1.18302E+07 1.97171E+05  3286.2      136.92     0.37488    
1
 
 SOLVING FOR HEAD 
                                                   Max.-Head-Change                         Max.-Flux-Residual
  Residual-Control   Outer-Iter.   Inner-Iter.     Column Row Layer    Maximum-Head-Change  Column Row Layer    Maximum-Flux-Residual          L2-NORM 
          0                 1           2             7   14     1       0.2082715414E+00       7   14    1         0.2236283841E+01      0.5354829377E+01
          0                 2           2             7   14     1       0.9611683103E-01       7   14    1         0.1033375147E+01      0.1226975631E+01
          0                 3           2             7   14     1       0.4435722083E-01       7   14    1         0.4767798318E+00      0.4859265205E+00
          0                 4           2             7   14     1       0.2047071954E-01       7   14    1         0.2200447155E+00      0.2209311901E+00
          0                 5           2             7   14     1       0.9447225906E-02       7   14    1         0.1015493029E+00      0.1016703609E+00
          0                 6           2             7   14     1       0.4359901372E-02       7   14    1         0.4686518498E-01      0.4688247519E-01
          0                 7           1             7   14     1       0.2012100559E-02       7   14    1         0.2162833437E-01      0.2163093897E-01
          0                 8           1             7   14     1       0.9285876872E-03       7   14    1         0.9981513418E-02      0.9981977402E-02
          0                 9           1             7   14     1       0.4285449355E-03       7   14    1         0.4606485719E-02      0.4606624904E-02
          0                10           1             7   14     1       0.1977742803E-03       7   14    1         0.2125902050E-02      0.2125984183E-02
          0                11           1             7   14     1       0.9127320987E-04       7   14    1         0.9811077433E-03      0.9811845347E-03

    ------------------------------------------------
       NWT REQUIRED           11 OUTER ITERATIONS 
       AND A TOTAL OF         17 INNER ITERATIONS.
    ------------------------------------------------

 NO OUTPUT CONTROL FOR STRESS PERIOD    5   TIME STEP   11
 
 SOLVING FOR HEAD 
                                                   Max.-Head-Change                         Max.-Flux-Residual
  Residual-Control   Outer-Iter.   Inner-Iter.     Column Row Layer    Maximum-Head-Change  Column Row Layer    Maximum-Flux-Residual          L2-NORM 
          0                 1           2             7   14     1       0.2227376409E+00       7   14    1         0.2174065299E+01      0.5189600409E+01
          0                 2           2             7   14     1       0.1027983522E+00       7   14    1         0.1004697368E+01      0.1392986808E+01
          0                 3           2             7   14     1       0.4744404701E-01       7   14    1         0.4635706544E+00      0.5341467131E+00
          0                 4           2             7   14     1       0.2189724476E-01       7   14    1         0.2139644596E+00      0.2436649476E+00
          0                 5           2             7   14     1       0.1010659130E-01       7   14    1         0.9875244901E-01      0.1123618039E+00
          0                 6           2             7   14     1       0.4664714356E-02       7   14    1         0.4557913097E-01      0.5188504455E-01
          0                 7           2             7   14     1       0.2153028286E-02       7   14    1         0.2103717755E-01      0.2396778325E-01
          0                 8           1             7   14     1       0.9937523843E-03       7   14    1         0.9709862678E-02      0.1107297688E-01
          0                 9           1             7   14     1       0.4586804397E-03       7   14    1         0.4481694579E-02      0.5115859440E-02
          0                10           1             7   14     1       0.2117121446E-03       7   14    1         0.2068592585E-02      0.2363644126E-02
          0                11           1             7   14     1       0.9772031949E-04       7   14    1         0.9547972401E-03      0.1092081183E-02

    ------------------------------------------------
       NWT REQUIRED           11 OUTER ITERATIONS 
       AND A TOTAL OF         18 INNER ITERATIONS.
    ------------------------------------------------

 NO OUTPUT CONTROL FOR STRESS PERIOD    5   TIME STEP   12
 
 SOLVING FOR HEAD 
                                                   Max.-Head-Change                         Max.-Flux-Residual
  Residual-Control   Outer-Iter.   Inner-Iter.     Column Row Layer    Maximum-Head-Change  Column Row Layer    Maximum-Flux-Residual          L2-NORM 
          0                 1           2             6    2     1       0.3114646852E+00       6    2    1         0.2752061505E+01      0.6262796186E+01
          0                 2           2             6    2     1       0.1698418219E+00       6    2    1         0.1501716509E+01      0.2241795229E+01
          0                 3           2             6    2     1       0.9261194569E-01       6    2    1         0.8187755365E+00      0.1085734777E+01
          0                 4           2             6    2     1       0.5051137061E-01       6    2    1         0.4464747341E+00      0.5523662158E+00
          0                 5           2             6    2     1       0.2755363974E-01       6    2    1         0.2435212554E+00      0.2862495559E+00
          0                 6           2             6    2     1       0.1503171224E-01       6    2    1         0.1328423786E+00      0.1502502016E+00
          0                 7           2             6    2     1       0.8200913997E-02       6    2    1         0.7247229799E-01      0.7963187676E-01
          0                 8           2             6    2     1       0.4474371136E-02       6    2    1         0.3953934518E-01      0.4252135053E-01
          0                 9           2             6    2     1       0.2441254685E-02       6    2    1         0.2157255537E-01      0.2283629935E-01
          0                10           1             6    2     1       0.1331996367E-02       6    2    1         0.1177021583E-01      0.1231805602E-01
                                                   Max.-Head-Change                         Max.-Flux-Residual
  Residual-Control   Outer-Iter.   Inner-Iter.     Column Row Layer    Maximum-Head-Change  Column Row Layer    Maximum-Flux-Residual          L2-NORM 
          0                11           1             6    2     1       0.7267757656E-03       6    2    1         0.6422080191E-02      0.6666244069E-02
          0                12           1             6    2     1       0.3965559849E-03       6    2    1         0.3504082015E-02      0.3616389255E-02
          0                13           1             6    2     1       0.2163788598E-03       6    2    1         0.1911962460E-02      0.1965371801E-02
          0                14           1             6    2     1       0.1180677132E-03       6    2    1         0.1043255406E-02      0.1069502347E-02
          0                15           1             6    2     1       0.6442483884E-04       6    2    1         0.5692563676E-03      0.5825493830E-03

    ------------------------------------------------
       NWT REQUIRED           15 OUTER ITERATIONS 
       AND A TOTAL OF         24 INNER ITERATIONS.
    ------------------------------------------------

 NO OUTPUT CONTROL FOR STRESS PERIOD    5   TIME STEP   13
 
 SOLVING FOR HEAD 
                                                   Max.-Head-Change                         Max.-Flux-Residual
  Residual-Control   Outer-Iter.   Inner-Iter.     Column Row Layer    Maximum-Head-Change  Column Row Layer    Maximum-Flux-Residual          L2-NORM 
          0                 1           2             7    2     1       0.4770077820E+00       7    2    1         0.3831190339E+01      0.7552156577E+01
          0                 2           2             7    2     1       0.2601695739E+00       7    2    1         0.2090618853E+01      0.3368575515E+01
          0                 3           2             7    2     1       0.1419233380E+00       7    2    1         0.1140221074E+01      0.1760806491E+01
          0                 4           2             6    2     1       0.7751494817E-01       7    2    1         0.6220319021E+00      0.9375132466E+00
          0                 5           2             6    2     1       0.4239851282E-01       6    2    1         0.3398812394E+00      0.5029511201E+00
          0                 6           2             6    2     1       0.2319155733E-01       6    2    1         0.1859076496E+00      0.2712029274E+00
          0                 7           2             6    2     1       0.1268570368E-01       6    2    1         0.1016900322E+00      0.1467728761E+00
          0                 8           2             6    2     1       0.6939046843E-02       6    2    1         0.5562417829E-01      0.7964243061E-01
          0                 9           2             6    2     1       0.3795626438E-02       6    2    1         0.3042629570E-01      0.4329871199E-01
          0                10           2             6    2     1       0.2076174835E-02       6    2    1         0.1664303090E-01      0.2357255205E-01
                                                   Max.-Head-Change                         Max.-Flux-Residual
  Residual-Control   Outer-Iter.   Inner-Iter.     Column Row Layer    Maximum-Head-Change  Column Row Layer    Maximum-Flux-Residual          L2-NORM 
          0                11           2             6    2     1       0.1135639630E-02       6    2    1         0.9103583274E-02      0.1284609409E-01
          0                12           1             6    2     1       0.6211735857E-03       6    2    1         0.4979530370E-02      0.7005617804E-02
          0                13           1             6    2     1       0.3397669216E-03       6    2    1         0.2723705685E-02      0.3822473766E-02
          0                14           1             6    2     1       0.1858424076E-03       6    2    1         0.1489798811E-02      0.2086421608E-02
          0                15           1             6    2     1       0.1016492441E-03       6    2    1         0.8148743977E-03      0.1139130989E-02
          0                16           1             6    2     1       0.5559799143E-04       6    2    1         0.4457068649E-03      0.6220544667E-03

    ------------------------------------------------
       NWT REQUIRED           16 OUTER ITERATIONS 
       AND A TOTAL OF         27 INNER ITERATIONS.
    ------------------------------------------------

 NO OUTPUT CONTROL FOR STRESS PERIOD    5   TIME STEP   14
 
 SOLVING FOR HEAD 
                                                   Max.-Head-Change                         Max.-Flux-Residual
  Residual-Control   Outer-Iter.   Inner-Iter.     Column Row Layer    Maximum-Head-Change  Column Row Layer    Maximum-Flux-Residual          L2-NORM 
          0                 1           2             7    2     1       0.5133613494E+00       7    2    1         0.3747197707E+01      0.7965500614E+01
          0                 2           2             6    2     1       0.2809186178E+00       6    2    1         0.2047232147E+01      0.3565822173E+01
          0                 3           2             6    2     1       0.1537237131E+00       6    2    1         0.1119743093E+01      0.1830041582E+01
          0                 4           2             6    2     1       0.8412595663E-01       6    2    1         0.6128080299E+00      0.9596569657E+00
          0                 5           2             6    2     1       0.4603947925E-01       6    2    1         0.3353624234E+00      0.5086164861E+00
          0                 6           2             6    2     1       0.2519605809E-01       6    2    1         0.1835349436E+00      0.2717638271E+00
          0                 7           2             6    2     1       0.1378896407E-01       6    2    1         0.1004434641E+00      0.1460903441E+00
          0                 8           2             6    2     1       0.7546141491E-02       6    2    1         0.5496934387E-01      0.7888473266E-01
          0                 9           2             6    2     1       0.4129631894E-02       6    2    1         0.3008245242E-01      0.4273473729E-01
          0                10           2             6    2     1       0.2259904359E-02       6    2    1         0.1646260919E-01      0.2320558386E-01
                                                   Max.-Head-Change                         Max.-Flux-Residual
  Residual-Control   Outer-Iter.   Inner-Iter.     Column Row Layer    Maximum-Head-Change  Column Row Layer    Maximum-Flux-Residual          L2-NORM 
          0                11           2             6    2     1       0.1236689966E-02       6    2    1         0.9008993222E-02      0.1262227792E-01
          0                12           1             6    2     1       0.6767427128E-03       6    2    1         0.4929987830E-02      0.6873953855E-02
          0                13           1             6    2     1       0.3703209882E-03       6    2    1         0.2697785267E-02      0.3746690430E-02
          0                14           1             6    2     1       0.2026399668E-03       6    2    1         0.1476253338E-02      0.2043401223E-02
          0                15           1             6    2     1       0.1108827548E-03       6    2    1         0.8078048379E-03      0.1114931436E-02
          0                16           1             6    2     1       0.6067295159E-04       6    2    1         0.4420222602E-03      0.6085214403E-03

    ------------------------------------------------
       NWT REQUIRED           16 OUTER ITERATIONS 
       AND A TOTAL OF         27 INNER ITERATIONS.
    ------------------------------------------------

 OUTPUT CONTROL FOR STRESS PERIOD    5   TIME STEP   15
    PRINT BUDGET
    SAVE BUDGET

            WELLS   PERIOD    5   STEP  15
 WELL      1   LAYER   1   ROW     6   COL     4   RATE    -3.00000    
 WELL      2   LAYER   1   ROW     6   COL     5   RATE    -3.00000    
 WELL      3   LAYER   1   ROW     7   COL     4   RATE    -3.00000    
 WELL      4   LAYER   1   ROW     7   COL     5   RATE    -3.00000    
 WELL      5   LAYER   1   ROW     8   COL     4   RATE    -3.00000    
 WELL      6   LAYER   1   ROW     8   COL     5   RATE    -3.00000    
 WELL      7   LAYER   1   ROW     9   COL     4   RATE    -3.00000    
 WELL      8   LAYER   1   ROW     9   COL     5   RATE    -3.00000    
 WELL      9   LAYER   1   ROW    10   COL     4   RATE    -3.00000    
 WELL     10   LAYER   1   ROW    10   COL     5   RATE    -3.00000    

  HEAD DEP BOUNDS   PERIOD    5   STEP    15
 BOUNDARY      1   LAYER   1   ROW    13   COL     1   RATE   -0.284877    
 BOUNDARY      2   LAYER   1   ROW    14   COL     9   RATE    0.207603    



 STREAM LISTING     PERIOD      5   STEP       15

 LAYER ROW COL. STREAM  RCH.  FLOW INTO     FLOW TO   FLOW OUT OF   OVRLND.     DIRECT     STREAM       STREAM     STREAM     STREAM   STREAMBED  STREAMBED
                SEG.NO.  NO.  STRM. RCH.    AQUIFER    STRM. RCH.    RUNOFF     PRECIP       ET          HEAD       DEPTH      WIDTH   CONDCTNC.   GRADIENT

   1    1    1     1     1    2.5000E+01  1.1990E+00   2.3801E+01  0.000E+00  0.000E+00  0.000E+00  1.09422E+03  1.171E+00  1.294E+01  5.824E-01  6.863E-01
   1    2    2     1     2    2.3801E+01  2.7367E+00   2.1064E+01  0.000E+00  0.000E+00  0.000E+00  1.08920E+03  1.141E+00  1.254E+01  8.775E-01  1.040E+00
   1    3    3     1     3    2.1064E+01  2.9183E+00   1.8146E+01  0.000E+00  0.000E+00  0.000E+00  1.08351E+03  1.094E+00  1.188E+01  7.129E-01  1.365E+00
   1    3    4     1     4    1.8146E+01  2.4796E+00   1.5666E+01  0.000E+00  0.000E+00  0.000E+00  1.07846E+03  1.048E+00  1.104E+01  6.126E-01  1.349E+00
   1    4    5     2     1    5.6663E+00  2.6690E+00   2.9973E+00  0.000E+00  0.000E+00  0.000E+00  1.07236E+03  4.218E-01  1.200E+01  7.800E-01  1.141E+00
   1    5    6     2     2    2.9973E+00  1.9600E+00   1.0372E+00  0.000E+00  0.000E+00  0.000E+00  1.06678E+03  2.667E-01  1.200E+01  6.000E-01  1.089E+00
   1    6    6     2     3    1.0372E+00  1.0372E+00   0.0000E+00  0.000E+00  0.000E+00  0.000E+00  1.06183E+03  4.026E-02  1.200E+01  6.000E-01  1.013E+00
   1    7    6     2     4    0.0000E+00  0.0000E+00   0.0000E+00  0.000E+00  0.000E+00  0.000E+00  1.05708E+03  0.000E+00  1.200E+01  6.000E-01  1.000E+00
   1    8    6     2     5    0.0000E+00  0.0000E+00   0.0000E+00  0.000E+00  0.000E+00  0.000E+00  1.05236E+03  0.000E+00  1.200E+01  6.000E-01  1.000E+00
   1    3    5     3     1    1.0000E+01  9.9021E-01   9.0098E+00  0.000E+00  0.000E+00  0.000E+00  1.07555E+03  1.909E+00  9.636E+00  7.227E-01  6.850E-01
   1    3    6     3     2    9.0098E+00  7.0302E-01   8.3068E+00  0.000E+00  0.000E+00  0.000E+00  1.07264E+03  1.727E+00  8.909E+00  6.682E-01  5.261E-01
   1    3    7     3     3    8.3068E+00  5.0002E-01   7.8067E+00  0.000E+00  0.000E+00  0.000E+00  1.06987E+03  1.555E+00  8.218E+00  5.547E-01  4.507E-01
   1    4    8     3     4    7.8067E+00  1.4266E+00   6.3802E+00  0.000E+00  0.000E+00  0.000E+00  1.06682E+03  1.364E+00  7.455E+00  6.709E-01  1.063E+00
   1    5    8     3     5    6.3802E+00  1.5790E+00   4.8012E+00  0.000E+00  0.000E+00  0.000E+00  1.06362E+03  1.164E+00  6.655E+00  4.991E-01  1.582E+00
   1    6    8     3     6    4.8012E+00  5.5980E-01   4.2414E+00  0.000E+00  0.000E+00  0.000E+00  1.06158E+03  1.036E+00  6.145E+00  1.844E-01  1.518E+00
   1    5   10     4     1    1.0000E+01  9.0525E-01   9.0947E+00  0.000E+00  0.000E+00  0.000E+00  1.07835E+03  6.210E-01  1.000E+01  2.500E-01  1.207E+00
   1    5    9     4     2    9.0947E+00  1.7835E+00   7.3113E+00  0.000E+00  0.000E+00  0.000E+00  1.07148E+03  5.670E-01  1.000E+01  5.000E-01  1.189E+00
   1    6    8     4     3    7.3113E+00  1.2257E+00   6.0855E+00  0.000E+00  0.000E+00  0.000E+00  1.06368E+03  5.021E-01  1.000E+01  3.500E-01  1.167E+00
   1    6    8     5     1    1.0327E+01  4.4059E-01   9.8864E+00  0.000E+00  0.000E+00  0.000E+00  1.05867E+03  6.741E-01  1.522E+01  6.090E-01  2.412E-01
   1    7    7     5     2    9.8864E+00  1.4399E+00   8.4465E+00  0.000E+00  0.000E+00  0.000E+00  1.05415E+03  6.515E-01  1.436E+01  7.179E-01  6.686E-01
   1    8    7     5     3    8.4465E+00  1.1105E+00   7.3360E+00  0.000E+00  0.000E+00  0.000E+00  1.04987E+03  6.182E-01  1.312E+01  4.593E-01  8.058E-01
   1    8    6     5     4    7.3360E+00  1.0761E+00   6.2599E+00  0.000E+00  0.000E+00  0.000E+00  1.04684E+03  5.868E-01  1.200E+01  3.000E-01  1.196E+00
   1    9    6     6     1    6.2599E+00  2.0496E+00   4.2103E+00  0.000E+00  0.000E+00  0.000E+00  1.04321E+03  4.779E-01  1.200E+01  6.000E-01  1.139E+00
   1   10    7     6     2    4.2103E+00  1.3341E+00   2.8762E+00  0.000E+00  0.000E+00  0.000E+00  1.03856E+03  3.781E-01  1.200E+01  6.000E-01  7.412E-01
   1   11    7     6     3    2.8762E+00  1.1255E+00   1.7507E+00  0.000E+00  0.000E+00  0.000E+00  1.03393E+03  2.928E-01  1.200E+01  6.000E-01  6.253E-01
   1   12    7     6     4    1.7507E+00  7.3522E-01   1.0155E+00  0.000E+00  0.000E+00  0.000E+00  1.02931E+03  2.150E-01  1.200E+01  6.000E-01  4.085E-01
   1   13    7     6     5    1.0155E+00 -7.9935E-01   1.8149E+00  0.000E+00  0.000E+00  0.000E+00  1.02613E+03  2.180E-01  1.200E+01  2.400E-01 -1.110E+00
   1   14    9     7     1    1.5000E+02  1.8470E+00   1.4815E+02  0.000E+00  0.000E+00  0.000E+00  1.03987E+03  2.286E+00  5.529E+01  5.592E+00  1.101E-01
   1   13    8     7     2    1.4815E+02  1.4602E+00   1.4669E+02  0.000E+00  0.000E+00  0.000E+00  1.03478E+03  2.278E+00  5.525E+01  6.147E+00  7.918E-02
   1   13    7     7     3    1.4669E+02  1.2946E+00   1.4540E+02  0.000E+00  0.000E+00  0.000E+00  1.02969E+03  2.270E+00  5.522E+01  5.584E+00  7.728E-02
   1   13    6     8     1    1.4721E+02  1.3965E-01   1.4707E+02  0.000E+00  0.000E+00  0.000E+00  1.02467E+03  2.797E+00  4.055E+01  4.132E+00  1.127E-02
   1   13    5     8     2    1.4707E+02 -3.9440E-01   1.4747E+02  0.000E+00  0.000E+00  0.000E+00  1.01842E+03  2.798E+00  4.056E+01  4.134E+00 -3.180E-02
   1   13    4     8     3    1.4747E+02 -1.2263E+00   1.4869E+02  0.000E+00  0.000E+00  0.000E+00  1.01218E+03  2.803E+00  4.065E+01  4.142E+00 -9.868E-02
   1   13    3     8     4    1.4869E+02 -1.9073E+00   1.5060E+02  0.000E+00  0.000E+00  0.000E+00  1.00594E+03  2.814E+00  4.081E+01  4.158E+00 -1.529E-01
   1   13    2     8     5    1.5060E+02 -2.0519E+00   1.5265E+02  0.000E+00  0.000E+00  0.000E+00  9.99703E+02  2.828E+00  4.101E+01  4.179E+00 -1.637E-01
   1   13    1     8     6    1.5265E+02 -1.9642E+00   1.5462E+02  0.000E+00  0.000E+00  0.000E+00  9.94717E+02  2.842E+00  4.121E+01  2.520E+00 -2.598E-01



 UBDSV3 SAVING "           GW ET" ON UNIT  61 AT TIME STEP 15, STRESS PERIOD   5
 UBDSV3 SAVING "    UZF RECHARGE" ON UNIT  61 AT TIME STEP 15, STRESS PERIOD   5
 UBDSV3 SAVING " SURFACE LEAKAGE" ON UNIT  61 AT TIME STEP 15, STRESS PERIOD   5
 UBDSV3 SAVING "       HORT+DUNN" ON UNIT  61 AT TIME STEP 15, STRESS PERIOD   5
 UBDSV3 SAVING "  STORAGE CHANGE" ON UNIT  61 AT TIME STEP 15, STRESS PERIOD   5


UNSATURATED ZONE PACKAGE VOLUMETRIC BUDGET FOR  TIME STEP    15 STRESS PERIOD    5
  ------------------------------------------------------------------------------



     CUMULATIVE VOLUMES      L**3       RATES FOR THIS TIME STEP      L**3/T
     ------------------                 ------------------------

           IN:                                      IN:
           ---                                      ---
        INFILTRATION =   979981122.0635          INFILTRATION =          42.3750

          OUT:                                     OUT:
          ----                                     ----
              UZF ET =        8040.5740                UZF ET =           0.0032
        UZF RECHARGE =   237461534.9003          UZF RECHARGE =          50.5005

            IN - OUT =   742511546.5892              IN - OUT =          -8.1287

          STORAGE:                                 STORAGE:
          --------                                 --------
      STORAGE CHANGE =   742085352.8698        STORAGE CHANGE =          -8.4519

 PERCENT DISCREPANCY IS DIFFERENCE BETWEEN IN-OUT MINUS CHANGE IN STORAGE
 DIVIDED BY THE AVERAGE OF IN AND OUT TIMES 100

 PERCENT DISCREPANCY =           0.01     PERCENT DISCREPANCY =           0.64






1
  VOLUMETRIC BUDGET FOR ENTIRE MODEL AT END OF TIME STEP   15, STRESS PERIOD   5
  ------------------------------------------------------------------------------

     CUMULATIVE VOLUMES      L**3       RATES FOR THIS TIME STEP      L**3/T
     ------------------                 ------------------------

           IN:                                      IN:
           ---                                      ---
             STORAGE     =    46976036.0000               STORAGE     =          14.9159
       CONSTANT HEAD     =           0.0000         CONSTANT HEAD     =           0.0000
               WELLS     =           0.0000                 WELLS     =           0.0000
     HEAD DEP BOUNDS     =     2729297.0000       HEAD DEP BOUNDS     =           0.2076
      STREAM LEAKAGE     =   530190688.0000        STREAM LEAKAGE     =          38.7260
        UZF RECHARGE     =   237461584.0000          UZF RECHARGE     =          50.5005
               GW ET     =           0.0000                 GW ET     =           0.0000
     SURFACE LEAKAGE     =           0.0000       SURFACE LEAKAGE     =           0.0000

                TOTAL IN =   817357568.0000                  TOTAL IN =         104.3500

          OUT:                                     OUT:
          ----                                     ----
             STORAGE     =   164421088.0000               STORAGE     =          41.8939
       CONSTANT HEAD     =           0.0000         CONSTANT HEAD     =           0.0000
               WELLS     =   236519984.0000                 WELLS     =          30.0000
     HEAD DEP BOUNDS     =     3713655.5000       HEAD DEP BOUNDS     =           0.2849
      STREAM LEAKAGE     =   105471296.0000        STREAM LEAKAGE     =           8.3435
        UZF RECHARGE     =           0.0000          UZF RECHARGE     =           0.0000
               GW ET     =   307225920.0000                 GW ET     =          23.8272
     SURFACE LEAKAGE     =           0.0000       SURFACE LEAKAGE     =           0.0000

               TOTAL OUT =   817351936.0000                 TOTAL OUT =         104.3495

                IN - OUT =        5632.0000                  IN - OUT =       5.4932E-04

     PERCENT DISCREPANCY =           0.00         PERCENT DISCREPANCY =           0.00






         TIME SUMMARY AT END OF TIME STEP   15 IN STRESS PERIOD    5
                    SECONDS     MINUTES      HOURS       DAYS        YEARS
                    -----------------------------------------------------------
   TIME STEP LENGTH 3.14103E+05  5235.0      87.251      3.6354     9.95332E-03
 STRESS PERIOD TIME 2.62800E+06  43800.      730.00      30.417     8.32763E-02
         TOTAL TIME 1.31400E+07 2.19000E+05  3650.0      152.08     0.41638    
1
1
                            STRESS PERIOD NO.    6, LENGTH =   2628000.    
                            -----------------------------------------------

                              NUMBER OF TIME STEPS =    15

                               MULTIPLIER FOR DELT =     1.100

                            INITIAL TIME STEP SIZE =   82713.07    

      0 WELLS

 REUSING NON-PARAMETER GHB CELLS FROM LAST STRESS PERIOD

      2 GHB CELLS

 REUSING STREAM SEGMENT DATA FROM LAST STRESS PERIOD



            AREAL INFILTRATION RATE
 READING ON UNIT   19 WITH FORMAT: (10F4.0)            

            1           2           3           4           5           6           7           8           9          10
 ........................................................................................................................
   1   1.0000E-08  2.0000E-08   0.000       0.000       0.000       0.000       0.000       0.000       0.000       0.000    
   2   2.0000E-08  1.0000E-08  2.0000E-08   0.000       0.000      8.0000E-08  8.0000E-08  5.0000E-08   0.000       0.000    
   3    0.000      5.0000E-08  1.0000E-08  1.0000E-08  8.0000E-08  8.0000E-08  5.0000E-08  5.0000E-08   0.000       0.000    
   4   8.0000E-08  5.0000E-08  1.0000E-08  1.0000E-08  1.0000E-08  1.0000E-08  1.0000E-08  1.0000E-08  2.0000E-08   0.000    
   5   8.0000E-08  5.0000E-08  1.0000E-08  1.0000E-08  1.0000E-08  1.0000E-08  1.0000E-08  1.0000E-08  1.0000E-08  1.0000E-08
   6   8.0000E-08  5.0000E-08  5.0000E-08  2.0000E-08  2.0000E-08  1.0000E-08  1.0000E-08  1.0000E-08  1.0000E-08  5.0000E-08
   7   8.0000E-08  5.0000E-08  5.0000E-08  2.0000E-08  2.0000E-08  1.0000E-08  1.0000E-08  2.0000E-08  2.0000E-08   0.000    
   8    0.000      5.0000E-08  5.0000E-08  2.0000E-08  2.0000E-08  1.0000E-08  1.0000E-08  2.0000E-08  5.0000E-08   0.000    
   9    0.000      5.0000E-08  5.0000E-08  2.0000E-08  2.0000E-08  1.0000E-08  1.0000E-08  2.0000E-08  5.0000E-08   0.000    
  10    0.000      5.0000E-08  5.0000E-08  2.0000E-08  2.0000E-08  1.0000E-08  1.0000E-08  2.0000E-08  5.0000E-08  8.0000E-08
  11    0.000      1.0000E-08  1.0000E-08  1.0000E-08  1.0000E-08  1.0000E-08  1.0000E-08  2.0000E-08  5.0000E-08   0.000    
  12   1.0000E-08  1.0000E-08  1.0000E-08  1.0000E-08  1.0000E-08  1.0000E-08  1.0000E-08  1.0000E-08  2.0000E-08   0.000    
  13   1.0000E-08  1.0000E-08  2.0000E-08  2.0000E-08  2.0000E-08  2.0000E-08  2.0000E-08  1.0000E-08  1.0000E-08   0.000    
  14    0.000      2.0000E-08  5.0000E-08  5.0000E-08  5.0000E-08  5.0000E-08  5.0000E-08  2.0000E-08  1.0000E-08   0.000    
  15    0.000       0.000      8.0000E-08  8.0000E-08  8.0000E-08  8.0000E-08   0.000       0.000       0.000       0.000    

USING ET RATE FROM PREVIOUS STRESS PERIOD. CURRENT PERIOD IS:       6

 USING ET EXTINCTION DEPTH FROM PREVIOUS STRESS PERIOD. CURRENT PERIOD IS:       6

 USING EXTINCTION WATER CONTENT FROM PREVIOUS STRESS PERIOD. CURRENT PERIOD IS:       6
 
 SOLVING FOR HEAD 
                                                   Max.-Head-Change                         Max.-Flux-Residual
  Residual-Control   Outer-Iter.   Inner-Iter.     Column Row Layer    Maximum-Head-Change  Column Row Layer    Maximum-Flux-Residual          L2-NORM 
          0                 1           2             6    2     1       0.1337835617E+00       6    2    1         0.3678715854E+01      0.9626568476E+01
          0                 2           2             6    2     1       0.7357834206E-01       6    2    1         0.2027493913E+01      0.3816915271E+01
          0                 3           2             6    2     1       0.4046789217E-01       6    2    1         0.1114658341E+01      0.1936608067E+01
          0                 4           2             6    2     1       0.2225761317E-01       6    2    1         0.6131059329E+00      0.1010596923E+01
          0                 5           2             6    2     1       0.1224194705E-01       6    2    1         0.3372090569E+00      0.5337657490E+00
          0                 6           2             6    2     1       0.6733242667E-02       6    2    1         0.1854696426E+00      0.2846197284E+00
          0                 7           2             6    2     1       0.3703383923E-02       6    2    1         0.1020109398E+00      0.1529132710E+00
          0                 8           2             6    2     1       0.2036916613E-02       6    2    1         0.5610755992E-01      0.8263479144E-01
          0                 9           2             6    2     1       0.1120333812E-02       6    2    1         0.3085999897E-01      0.4485578191E-01
          0                10           1             6    2     1       0.6161991852E-03       6    2    1         0.1697344738E-01      0.2443058363E-01
                                                   Max.-Head-Change                         Max.-Flux-Residual
  Residual-Control   Outer-Iter.   Inner-Iter.     Column Row Layer    Maximum-Head-Change  Column Row Layer    Maximum-Flux-Residual          L2-NORM 
          0                11           1             6    2     1       0.3389176436E-03       6    2    1         0.9335630511E-02      0.1333950409E-01
          0                12           1             6    2     1       0.1864088746E-03       6    2    1         0.5134718339E-02      0.7297270336E-02
          0                13           1             6    2     1       0.1025270148E-03       6    2    1         0.2824157615E-02      0.3997653302E-02
          0                14           1             6    2     1       0.5639094423E-04       6    2    1         0.1553318646E-02      0.2192667489E-02

    ------------------------------------------------
       NWT REQUIRED           14 OUTER ITERATIONS 
       AND A TOTAL OF         23 INNER ITERATIONS.
    ------------------------------------------------

 NO OUTPUT CONTROL FOR STRESS PERIOD    6   TIME STEP    1
 
 SOLVING FOR HEAD 
                                                   Max.-Head-Change                         Max.-Flux-Residual
  Residual-Control   Outer-Iter.   Inner-Iter.     Column Row Layer    Maximum-Head-Change  Column Row Layer    Maximum-Flux-Residual          L2-NORM 
          0                 1           2             6    2     1       0.1465818571E+00       6    2    1         0.3664726473E+01      0.9641479862E+01
          0                 2           2             6    2     1       0.8060079188E-01       6    2    1         0.2019448848E+01      0.3830915699E+01
          0                 3           2             6    2     1       0.4432127504E-01       6    2    1         0.1110003043E+01      0.1939549457E+01
          0                 4           2             6    2     1       0.2437209167E-01       6    2    1         0.6104231289E+00      0.1009968706E+01
          0                 5           2             6    2     1       0.1340223650E-01       6    2    1         0.3356658898E+00      0.5324754076E+00
          0                 6           2             6    2     1       0.7369932895E-02       6    2    1         0.1845837332E+00      0.2835276721E+00
          0                 7           2             6    2     1       0.4052755078E-02       6    2    1         0.1015032202E+00      0.1521594899E+00
          0                 8           2             6    2     1       0.2228625382E-02       6    2    1         0.5581703917E-01      0.8215864403E-01
          0                 9           2             6    2     1       0.1225528187E-02       6    2    1         0.3069400087E-01      0.4456870148E-01
          0                10           1             6    2     1       0.6739207940E-03       6    2    1         0.1687872622E-01      0.2426208527E-01
                                                   Max.-Head-Change                         Max.-Flux-Residual
  Residual-Control   Outer-Iter.   Inner-Iter.     Column Row Layer    Maximum-Head-Change  Column Row Layer    Maximum-Flux-Residual          L2-NORM 
          0                11           1             6    2     1       0.3705899401E-03       6    2    1         0.9281648386E-02      0.1324224744E-01
          0                12           1             6    2     1       0.2037875238E-03       6    2    1         0.5103989521E-02      0.7241811099E-02
          0                13           1             6    2     1       0.1120626079E-03       6    2    1         0.2806684627E-02      0.3966412117E-02
          0                14           1             6    2     1       0.6162302740E-04       6    2    1         0.1543393338E-02      0.2175400856E-02

    ------------------------------------------------
       NWT REQUIRED           14 OUTER ITERATIONS 
       AND A TOTAL OF         23 INNER ITERATIONS.
    ------------------------------------------------

 NO OUTPUT CONTROL FOR STRESS PERIOD    6   TIME STEP    2
 
 SOLVING FOR HEAD 
                                                   Max.-Head-Change                         Max.-Flux-Residual
  Residual-Control   Outer-Iter.   Inner-Iter.     Column Row Layer    Maximum-Head-Change  Column Row Layer    Maximum-Flux-Residual          L2-NORM 
          0                 1           2             7    2     1       0.1588151276E+00       7    2    1         0.3614618189E+01      0.9505736493E+01
          0                 2           2             7    2     1       0.8604910220E-01       7    2    1         0.1962452278E+01      0.3710313661E+01
          0                 3           2             7    2     1       0.4656656107E-01       7    2    1         0.1061606930E+01      0.1855479245E+01
          0                 4           2             7    2     1       0.2520018151E-01       7    2    1         0.5745439324E+00      0.9538611615E+00
          0                 5           2             7    2     1       0.1363744474E-01       7    2    1         0.3109195359E+00      0.4959267640E+00
          0                 6           2             7    2     1       0.7380081797E-02       7    2    1         0.1682591240E+00      0.2601901466E+00
          0                 7           2             7    2     1       0.3993813833E-02       7    2    1         0.9105558256E-01      0.1375087963E+00
          0                 8           2             7    2     1       0.2161289310E-02       7    2    1         0.4927573276E-01      0.7309458213E-01
          0                 9           2             7    2     1       0.1169598009E-02       7    2    1         0.2666600742E-01      0.3903076858E-01
          0                10           1             7    2     1       0.6329350680E-03       7    2    1         0.1443050493E-01      0.2091466171E-01
                                                   Max.-Head-Change                         Max.-Flux-Residual
  Residual-Control   Outer-Iter.   Inner-Iter.     Column Row Layer    Maximum-Head-Change  Column Row Layer    Maximum-Flux-Residual          L2-NORM 
          0                11           1             7    2     1       0.3425159189E-03       7    2    1         0.7809152465E-02      0.1123745121E-01
          0                12           1             7    2     1       0.1853538692E-03       7    2    1         0.4225959905E-02      0.6050675071E-02
          0                13           1             7    2     1       0.1003048782E-03       7    2    1         0.2286894697E-02      0.3263699024E-02
          0                14           1             7    2     1       0.5428028840E-04       7    2    1         0.1237560665E-02      0.1763592078E-02

    ------------------------------------------------
       NWT REQUIRED           14 OUTER ITERATIONS 
       AND A TOTAL OF         23 INNER ITERATIONS.
    ------------------------------------------------

 NO OUTPUT CONTROL FOR STRESS PERIOD    6   TIME STEP    3
 
 SOLVING FOR HEAD 
                                                   Max.-Head-Change                         Max.-Flux-Residual
  Residual-Control   Outer-Iter.   Inner-Iter.     Column Row Layer    Maximum-Head-Change  Column Row Layer    Maximum-Flux-Residual          L2-NORM 
          0                 1           2             7    2     1       0.1617289279E+00       7    2    1         0.3347071201E+01      0.9481583582E+01
          0                 2           2             7    2     1       0.8557911425E-01       7    2    1         0.1774956042E+01      0.3627876787E+01
          0                 3           2             7    2     1       0.4528461593E-01       7    2    1         0.9388430221E+00      0.1769158142E+01
          0                 4           2             7    2     1       0.2396268931E-01       7    2    1         0.4968338123E+00      0.8846732725E+00
          0                 5           2             7    2     1       0.1268003609E-01       7    2    1         0.2629000156E+00      0.4462264007E+00
          0                 6           2             7    2     1       0.6709718437E-02       7    2    1         0.1391159881E+00      0.2270201254E+00
          0                 7           2             7    2     1       0.3550474975E-02       7    2    1         0.7361403121E-01      0.1163555981E+00
          0                 8           2             7    2     1       0.1878740715E-02       7    2    1         0.3895315232E-01      0.6001320544E-01
          0                 9           1             7    2     1       0.9941355802E-03       7    2    1         0.2061212565E-01      0.3111717618E-01
          0                10           1             7    2     1       0.5260450439E-03       7    2    1         0.1090689978E-01      0.1620520266E-01
                                                   Max.-Head-Change                         Max.-Flux-Residual
  Residual-Control   Outer-Iter.   Inner-Iter.     Column Row Layer    Maximum-Head-Change  Column Row Layer    Maximum-Flux-Residual          L2-NORM 
          0                11           1             7    2     1       0.2783550072E-03       7    2    1         0.5771363465E-02      0.8469976688E-02
          0                12           1             7    2     1       0.1472903109E-03       7    2    1         0.3053896775E-02      0.4440656093E-02
          0                13           1             7    2     1       0.7793788006E-04       7    2    1         0.1615955329E-02      0.2334867442E-02

    ------------------------------------------------
       NWT REQUIRED           13 OUTER ITERATIONS 
       AND A TOTAL OF         21 INNER ITERATIONS.
    ------------------------------------------------

 NO OUTPUT CONTROL FOR STRESS PERIOD    6   TIME STEP    4
 
 SOLVING FOR HEAD 
                                                   Max.-Head-Change                         Max.-Flux-Residual
  Residual-Control   Outer-Iter.   Inner-Iter.     Column Row Layer    Maximum-Head-Change  Column Row Layer    Maximum-Flux-Residual          L2-NORM 
          0                 1           2             7    2     1       0.1638497802E+00       7    2    1         0.3083838733E+01      0.9233850883E+01
          0                 2           2             7    2     1       0.8408870144E-01       7    2    1         0.1586096636E+01      0.3405124379E+01
          0                 3           2             7    2     1       0.4315505433E-01       7    2    1         0.8136563365E+00      0.1618181997E+01
          0                 4           2             7    2     1       0.2214769278E-01       7    2    1         0.4176116047E+00      0.7878986072E+00
          0                 5           2             7    2     1       0.1136648549E-01       7    2    1         0.2143204407E+00      0.3863361111E+00
          0                 6           2             7    2     1       0.5833421047E-02       7    2    1         0.1099925077E+00      0.1905837361E+00
          0                 7           2             7    2     1       0.2993774366E-02       7    2    1         0.5644948900E-01      0.9452836402E-01
          0                 8           2             7    2     1       0.1536431114E-02       7    2    1         0.2897047594E-01      0.4711596042E-01
          0                 9           1             7    2     1       0.7885067984E-03       7    2    1         0.1486789358E-01      0.2358786647E-01
          0                10           1             7    2     1       0.4046654848E-03       7    2    1         0.7630298723E-02      0.1185580275E-01
                                                   Max.-Head-Change                         Max.-Flux-Residual
  Residual-Control   Outer-Iter.   Inner-Iter.     Column Row Layer    Maximum-Head-Change  Column Row Layer    Maximum-Flux-Residual          L2-NORM 
          0                11           1             7    2     1       0.2076755870E-03       7    2    1         0.3915903789E-02      0.5980694974E-02
          0                12           1             7    2     1       0.1065794582E-03       7    2    1         0.2009652981E-02      0.3027812888E-02
          0                13           1             7    2     1       0.5469662925E-04       7    2    1         0.1031356821E-02      0.1539369966E-02

    ------------------------------------------------
       NWT REQUIRED           13 OUTER ITERATIONS 
       AND A TOTAL OF         21 INNER ITERATIONS.
    ------------------------------------------------

 OUTPUT CONTROL FOR STRESS PERIOD    6   TIME STEP    5
    PRINT BUDGET
    SAVE BUDGET

  HEAD DEP BOUNDS   PERIOD    6   STEP     5
 BOUNDARY      1   LAYER   1   ROW    13   COL     1   RATE   -0.284301    
 BOUNDARY      2   LAYER   1   ROW    14   COL     9   RATE    0.206999    



 STREAM LISTING     PERIOD      6   STEP        5

 LAYER ROW COL. STREAM  RCH.  FLOW INTO     FLOW TO   FLOW OUT OF   OVRLND.     DIRECT     STREAM       STREAM     STREAM     STREAM   STREAMBED  STREAMBED
                SEG.NO.  NO.  STRM. RCH.    AQUIFER    STRM. RCH.    RUNOFF     PRECIP       ET          HEAD       DEPTH      WIDTH   CONDCTNC.   GRADIENT

   1    1    1     1     1    2.5000E+01  1.1990E+00   2.3801E+01  0.000E+00  0.000E+00  0.000E+00  1.09422E+03  1.171E+00  1.294E+01  5.824E-01  6.862E-01
   1    2    2     1     2    2.3801E+01  2.7358E+00   2.1065E+01  0.000E+00  0.000E+00  0.000E+00  1.08920E+03  1.141E+00  1.254E+01  8.775E-01  1.039E+00
   1    3    3     1     3    2.1065E+01  2.9184E+00   1.8147E+01  0.000E+00  0.000E+00  0.000E+00  1.08351E+03  1.094E+00  1.188E+01  7.129E-01  1.365E+00
   1    3    4     1     4    1.8147E+01  2.4797E+00   1.5667E+01  0.000E+00  0.000E+00  0.000E+00  1.07846E+03  1.048E+00  1.104E+01  6.126E-01  1.349E+00
   1    4    5     2     1    5.6671E+00  2.6691E+00   2.9981E+00  0.000E+00  0.000E+00  0.000E+00  1.07236E+03  4.219E-01  1.200E+01  7.800E-01  1.141E+00
   1    5    6     2     2    2.9981E+00  1.9600E+00   1.0380E+00  0.000E+00  0.000E+00  0.000E+00  1.06678E+03  2.667E-01  1.200E+01  6.000E-01  1.089E+00
   1    6    6     2     3    1.0380E+00  1.0380E+00   0.0000E+00  0.000E+00  0.000E+00  0.000E+00  1.06183E+03  4.028E-02  1.200E+01  6.000E-01  1.013E+00
   1    7    6     2     4    0.0000E+00  0.0000E+00   0.0000E+00  0.000E+00  0.000E+00  0.000E+00  1.05708E+03  0.000E+00  1.200E+01  6.000E-01  1.000E+00
   1    8    6     2     5    0.0000E+00  0.0000E+00   0.0000E+00  0.000E+00  0.000E+00  0.000E+00  1.05236E+03  0.000E+00  1.200E+01  6.000E-01  1.000E+00
   1    3    5     3     1    1.0000E+01  1.1105E+00   8.8895E+00  0.000E+00  0.000E+00  0.000E+00  1.07555E+03  1.909E+00  9.636E+00  7.227E-01  7.683E-01
   1    3    6     3     2    8.8895E+00  8.1733E-01   8.0721E+00  0.000E+00  0.000E+00  0.000E+00  1.07264E+03  1.727E+00  8.909E+00  6.682E-01  6.116E-01
   1    3    7     3     3    8.0721E+00  5.7496E-01   7.4972E+00  0.000E+00  0.000E+00  0.000E+00  1.06987E+03  1.555E+00  8.218E+00  5.547E-01  5.182E-01
   1    4    8     3     4    7.4972E+00  1.4226E+00   6.0746E+00  0.000E+00  0.000E+00  0.000E+00  1.06682E+03  1.364E+00  7.455E+00  6.709E-01  1.060E+00
   1    5    8     3     5    6.0746E+00  1.5790E+00   4.4956E+00  0.000E+00  0.000E+00  0.000E+00  1.06362E+03  1.164E+00  6.655E+00  4.991E-01  1.582E+00
   1    6    8     3     6    4.4956E+00  5.5980E-01   3.9358E+00  0.000E+00  0.000E+00  0.000E+00  1.06158E+03  1.036E+00  6.145E+00  1.844E-01  1.518E+00
   1    5   10     4     1    1.0000E+01  9.0525E-01   9.0947E+00  0.000E+00  0.000E+00  0.000E+00  1.07835E+03  6.210E-01  1.000E+01  2.500E-01  1.207E+00
   1    5    9     4     2    9.0947E+00  1.7835E+00   7.3113E+00  0.000E+00  0.000E+00  0.000E+00  1.07148E+03  5.670E-01  1.000E+01  5.000E-01  1.189E+00
   1    6    8     4     3    7.3113E+00  1.2257E+00   6.0855E+00  0.000E+00  0.000E+00  0.000E+00  1.06368E+03  5.021E-01  1.000E+01  3.500E-01  1.167E+00
   1    6    8     5     1    1.0021E+01  4.2879E-01   9.5926E+00  0.000E+00  0.000E+00  0.000E+00  1.05867E+03  6.671E-01  1.495E+01  5.981E-01  2.390E-01
   1    7    7     5     2    9.5926E+00  1.4105E+00   8.1821E+00  0.000E+00  0.000E+00  0.000E+00  1.05414E+03  6.445E-01  1.409E+01  7.047E-01  6.672E-01
   1    8    7     5     3    8.1821E+00  1.0822E+00   7.0999E+00  0.000E+00  0.000E+00  0.000E+00  1.04986E+03  6.113E-01  1.287E+01  4.505E-01  8.007E-01
   1    8    6     5     4    7.0999E+00  1.0526E+00   6.0472E+00  0.000E+00  0.000E+00  0.000E+00  1.04683E+03  5.799E-01  1.176E+01  2.940E-01  1.193E+00
   1    9    6     6     1    6.0472E+00  2.0380E+00   4.0093E+00  0.000E+00  0.000E+00  0.000E+00  1.04319E+03  4.665E-01  1.200E+01  6.000E-01  1.132E+00
   1   10    7     6     2    4.0093E+00  1.3220E+00   2.6873E+00  0.000E+00  0.000E+00  0.000E+00  1.03855E+03  3.655E-01  1.200E+01  6.000E-01  7.345E-01
   1   11    7     6     3    2.6873E+00  1.0957E+00   1.5915E+00  0.000E+00  0.000E+00  0.000E+00  1.03392E+03  2.794E-01  1.200E+01  6.000E-01  6.087E-01
   1   12    7     6     4    1.5915E+00  6.6079E-01   9.3075E-01  0.000E+00  0.000E+00  0.000E+00  1.02929E+03  2.034E-01  1.200E+01  6.000E-01  3.671E-01
   1   13    7     6     5    9.3075E-01 -7.9763E-01   1.7284E+00  0.000E+00  0.000E+00  0.000E+00  1.02612E+03  2.100E-01  1.200E+01  2.400E-01 -1.108E+00
   1   14    9     7     1    1.5000E+02  1.7595E+00   1.4824E+02  0.000E+00  0.000E+00  0.000E+00  1.03987E+03  2.287E+00  5.529E+01  5.592E+00  1.049E-01
   1   13    8     7     2    1.4824E+02  1.4492E+00   1.4679E+02  0.000E+00  0.000E+00  0.000E+00  1.03478E+03  2.278E+00  5.525E+01  6.147E+00  7.859E-02
   1   13    7     7     3    1.4679E+02  1.3811E+00   1.4541E+02  0.000E+00  0.000E+00  0.000E+00  1.02969E+03  2.271E+00  5.522E+01  5.585E+00  8.244E-02
   1   13    6     8     1    1.4714E+02  2.2554E-01   1.4691E+02  0.000E+00  0.000E+00  0.000E+00  1.02467E+03  2.796E+00  4.054E+01  4.131E+00  1.820E-02
   1   13    5     8     2    1.4691E+02 -3.6347E-01   1.4728E+02  0.000E+00  0.000E+00  0.000E+00  1.01842E+03  2.796E+00  4.055E+01  4.132E+00 -2.932E-02
   1   13    4     8     3    1.4728E+02 -1.1993E+00   1.4848E+02  0.000E+00  0.000E+00  0.000E+00  1.01218E+03  2.802E+00  4.063E+01  4.140E+00 -9.656E-02
   1   13    3     8     4    1.4848E+02 -1.8823E+00   1.5036E+02  0.000E+00  0.000E+00  0.000E+00  1.00594E+03  2.813E+00  4.078E+01  4.156E+00 -1.510E-01
   1   13    2     8     5    1.5036E+02 -2.1280E+00   1.5249E+02  0.000E+00  0.000E+00  0.000E+00  9.99702E+02  2.827E+00  4.099E+01  4.177E+00 -1.698E-01
   1   13    1     8     6    1.5249E+02 -1.9284E+00   1.5441E+02  0.000E+00  0.000E+00  0.000E+00  9.94716E+02  2.841E+00  4.119E+01  2.519E+00 -2.552E-01



 UBDSV3 SAVING "           GW ET" ON UNIT  61 AT TIME STEP  5, STRESS PERIOD   6
 UBDSV3 SAVING "    UZF RECHARGE" ON UNIT  61 AT TIME STEP  5, STRESS PERIOD   6
 UBDSV3 SAVING " SURFACE LEAKAGE" ON UNIT  61 AT TIME STEP  5, STRESS PERIOD   6
 UBDSV3 SAVING "       HORT+DUNN" ON UNIT  61 AT TIME STEP  5, STRESS PERIOD   6
 UBDSV3 SAVING "  STORAGE CHANGE" ON UNIT  61 AT TIME STEP  5, STRESS PERIOD   6


UNSATURATED ZONE PACKAGE VOLUMETRIC BUDGET FOR  TIME STEP     5 STRESS PERIOD    6
  ------------------------------------------------------------------------------



     CUMULATIVE VOLUMES      L**3       RATES FOR THIS TIME STEP      L**3/T
     ------------------                 ------------------------

           IN:                                      IN:
           ---                                      ---
        INFILTRATION =  1022777463.8193          INFILTRATION =          84.7500

          OUT:                                     OUT:
          ----                                     ----
              UZF ET =        8040.5740                UZF ET =       0.0000E+00
        UZF RECHARGE =   266588091.3833          UZF RECHARGE =          57.3328

            IN - OUT =   756181331.8620              IN - OUT =          27.4172

          STORAGE:                                 STORAGE:
          --------                                 --------
      STORAGE CHANGE =   755755133.2678        STORAGE CHANGE =          27.4172

 PERCENT DISCREPANCY IS DIFFERENCE BETWEEN IN-OUT MINUS CHANGE IN STORAGE
 DIVIDED BY THE AVERAGE OF IN AND OUT TIMES 100

 PERCENT DISCREPANCY =           0.01     PERCENT DISCREPANCY =           0.00






1
  VOLUMETRIC BUDGET FOR ENTIRE MODEL AT END OF TIME STEP    5, STRESS PERIOD   6
  ------------------------------------------------------------------------------

     CUMULATIVE VOLUMES      L**3       RATES FOR THIS TIME STEP      L**3/T
     ------------------                 ------------------------

           IN:                                      IN:
           ---                                      ---
             STORAGE     =    48558556.0000               STORAGE     =           2.6090
       CONSTANT HEAD     =           0.0000         CONSTANT HEAD     =           0.0000
               WELLS     =           0.0000                 WELLS     =           0.0000
     HEAD DEP BOUNDS     =     2834047.0000       HEAD DEP BOUNDS     =           0.2070
      STREAM LEAKAGE     =   549809792.0000        STREAM LEAKAGE     =          38.8846
        UZF RECHARGE     =   266588128.0000          UZF RECHARGE     =          57.3328
               GW ET     =           0.0000                 GW ET     =           0.0000
     SURFACE LEAKAGE     =           0.0000       SURFACE LEAKAGE     =           0.0000

                TOTAL IN =   867790464.0000                  TOTAL IN =          99.0334

          OUT:                                     OUT:
          ----                                     ----
             STORAGE     =   198474000.0000               STORAGE     =          66.6039
       CONSTANT HEAD     =           0.0000         CONSTANT HEAD     =           0.0000
               WELLS     =   236519984.0000                 WELLS     =           0.0000
     HEAD DEP BOUNDS     =     3857325.2500       HEAD DEP BOUNDS     =           0.2843
      STREAM LEAKAGE     =   109669448.0000        STREAM LEAKAGE     =           8.2991
        UZF RECHARGE     =           0.0000          UZF RECHARGE     =           0.0000
               GW ET     =   319263072.0000                 GW ET     =          23.8443
     SURFACE LEAKAGE     =           0.0000       SURFACE LEAKAGE     =           0.0000

               TOTAL OUT =   867783808.0000                 TOTAL OUT =          99.0315

                IN - OUT =        6656.0000                  IN - OUT =       1.8539E-03

     PERCENT DISCREPANCY =           0.00         PERCENT DISCREPANCY =           0.00






         TIME SUMMARY AT END OF TIME STEP    5 IN STRESS PERIOD    6
                    SECONDS     MINUTES      HOURS       DAYS        YEARS
                    -----------------------------------------------------------
   TIME STEP LENGTH 1.21100E+05  2018.3      33.639      1.4016     3.83743E-03
 STRESS PERIOD TIME 5.04972E+05  8416.2      140.27      5.8446     1.60016E-02
         TOTAL TIME 1.36450E+07 2.27416E+05  3790.3      157.93     0.43238    
1
 
 SOLVING FOR HEAD 
                                                   Max.-Head-Change                         Max.-Flux-Residual
  Residual-Control   Outer-Iter.   Inner-Iter.     Column Row Layer    Maximum-Head-Change  Column Row Layer    Maximum-Flux-Residual          L2-NORM 
          0                 1           2             7    2     1       0.1650030773E+00       7    2    1         0.2824262857E+01      0.8932420276E+01
          0                 2           2             7    2     1       0.8463902117E-01       7    2    1         0.1451949281E+01      0.3181438262E+01
          0                 3           2             7    2     1       0.4291707825E-01       7    2    1         0.7359550170E+00      0.1482489352E+01
          0                 4           2             7    2     1       0.2117071836E-01       7    2    1         0.3630698775E+00      0.7030605030E+00
          0                 5           2             7    2     1       0.1044344922E-01       7    2    1         0.1790977073E+00      0.3348915360E+00
          0                 6           2             7    2     1       0.5151735204E-02       7    2    1         0.8834880711E-01      0.1599540008E+00
          0                 7           2             7    2     1       0.2541342475E-02       7    2    1         0.4358231716E-01      0.7658315300E-01
          0                 8           2             7    2     1       0.1253638549E-02       7    2    1         0.2149909234E-01      0.3678018478E-01
          0                 9           1             7    2     1       0.6184159306E-03       7    2    1         0.1060545243E-01      0.1771490029E-01
          0                10           1             7    2     1       0.3050619887E-03       7    2    1         0.5231634717E-02      0.8555793350E-02
                                                   Max.-Head-Change                         Max.-Flux-Residual
  Residual-Control   Outer-Iter.   Inner-Iter.     Column Row Layer    Maximum-Head-Change  Column Row Layer    Maximum-Flux-Residual          L2-NORM 
          0                11           1             7    2     1       0.1504854920E-03       7    2    1         0.2580742641E-02      0.4144249082E-02
          0                12           1             7    2     1       0.7423357218E-04       7    2    1         0.1273066502E-02      0.2014953857E-02

    ------------------------------------------------
       NWT REQUIRED           12 OUTER ITERATIONS 
       AND A TOTAL OF         20 INNER ITERATIONS.
    ------------------------------------------------

 NO OUTPUT CONTROL FOR STRESS PERIOD    6   TIME STEP    6
 
 SOLVING FOR HEAD 
                                                   Max.-Head-Change                         Max.-Flux-Residual
  Residual-Control   Outer-Iter.   Inner-Iter.     Column Row Layer    Maximum-Head-Change  Column Row Layer    Maximum-Flux-Residual          L2-NORM 
          0                 1           2             6    2     1       0.1624656836E+00       6    2    1         0.2524935444E+01      0.8555719125E+01
          0                 2           2             6    2     1       0.8026529300E-01       6    2    1         0.1250248803E+01      0.2903337330E+01
          0                 3           2             6    2     1       0.3965648843E-01       6    2    1         0.6174012318E+00      0.1325280385E+01
          0                 4           2             6    2     1       0.1959354233E-01       6    2    1         0.3050696576E+00      0.6209168193E+00
          0                 5           2             6    2     1       0.9680959325E-02       6    2    1         0.1507272498E+00      0.2926154008E+00
          0                 6           2             6    2     1       0.4783293497E-02       6    2    1         0.7447321709E-01      0.1384685416E+00
          0                 7           2             6    2     1       0.2363396742E-02       6    2    1         0.3679670861E-01      0.6577322636E-01
          0                 8           2             6    2     1       0.1167739105E-02       6    2    1         0.1818104361E-01      0.3138820093E-01
          0                 9           1             6    2     1       0.5769706887E-03       6    2    1         0.8983134648E-02      0.1504345862E-01
          0                10           1             6    2     1       0.2850755047E-03       6    2    1         0.4438493747E-02      0.7239324307E-02
                                                   Max.-Head-Change                         Max.-Flux-Residual
  Residual-Control   Outer-Iter.   Inner-Iter.     Column Row Layer    Maximum-Head-Change  Column Row Layer    Maximum-Flux-Residual          L2-NORM 
          0                11           1             6    2     1       0.1408523163E-03       6    2    1         0.2193014308E-02      0.3498464055E-02
          0                12           1             6    2     1       0.6959304640E-04       6    2    1         0.1083540638E-02      0.1699623181E-02

    ------------------------------------------------
       NWT REQUIRED           12 OUTER ITERATIONS 
       AND A TOTAL OF         20 INNER ITERATIONS.
    ------------------------------------------------

 NO OUTPUT CONTROL FOR STRESS PERIOD    6   TIME STEP    7
 
 SOLVING FOR HEAD 
                                                   Max.-Head-Change                         Max.-Flux-Residual
  Residual-Control   Outer-Iter.   Inner-Iter.     Column Row Layer    Maximum-Head-Change  Column Row Layer    Maximum-Flux-Residual          L2-NORM 
          0                 1           2             7    2     1       0.1618203568E+00       7    2    1         0.2291173694E+01      0.8167580219E+01
          0                 2           2             7    2     1       0.7593679003E-01       7    2    1         0.1077546269E+01      0.2575970183E+01
          0                 3           2             7    2     1       0.3563345536E-01       7    2    1         0.5054245588E+00      0.1123547541E+01
          0                 4           2             7    2     1       0.1672100153E-01       7    2    1         0.2371942411E+00      0.5062582882E+00
          0                 5           2             7    2     1       0.7846329669E-02       7    2    1         0.1113013536E+00      0.2292037238E+00
          0                 6           2             7    2     1       0.3681882398E-02       7    2    1         0.5222843031E-01      0.1041506747E+00
          0                 7           2             7    2     1       0.1727712936E-02       7    2    1         0.2450811483E-01      0.4747653239E-01
          0                 8           1             7    2     1       0.8107206113E-03       7    2    1         0.1150036044E-01      0.2170429145E-01
          0                 9           1             7    2     1       0.3804246730E-03       7    2    1         0.5396481981E-02      0.9949815587E-02
          0                10           1             7    2     1       0.1785106245E-03       7    2    1         0.2532257299E-02      0.4575289511E-02
          0                11           1             4   15     1       0.9262722477E-04       7    2    1         0.1188236455E-02      0.2113274629E-02

    ------------------------------------------------
       NWT REQUIRED           11 OUTER ITERATIONS 
       AND A TOTAL OF         18 INNER ITERATIONS.
    ------------------------------------------------

 NO OUTPUT CONTROL FOR STRESS PERIOD    6   TIME STEP    8
 
 SOLVING FOR HEAD 
                                                   Max.-Head-Change                         Max.-Flux-Residual
  Residual-Control   Outer-Iter.   Inner-Iter.     Column Row Layer    Maximum-Head-Change  Column Row Layer    Maximum-Flux-Residual          L2-NORM 
          0                 1           2             6    2     1       0.1642568397E+00       6    2    1         0.2110048718E+01      0.7807663696E+01
          0                 2           2             6    2     1       0.7726312391E-01       6    2    1         0.9947685156E+00      0.2265593167E+01
          0                 3           2             6    2     1       0.3633993310E-01       6    2    1         0.4676976293E+00      0.9961474633E+00
          0                 4           2             6    2     1       0.1709099080E-01       6    2    1         0.2199957102E+00      0.4448591235E+00
          0                 5           2             6    2     1       0.8037580983E-02       6    2    1         0.1034627340E+00      0.1997931104E+00
          0                 6           2             6    2     1       0.3779736207E-02       6    2    1         0.4865639309E-01      0.9016556488E-01
          0                 7           2             6    2     1       0.1777371447E-02       6    2    1         0.2288084046E-01      0.4087048258E-01
          0                 8           1             6    2     1       0.8357526652E-03       6    2    1         0.1075933645E-01      0.1860210164E-01
          0                 9           1             6    2     1       0.3929725006E-03       6    2    1         0.5059203266E-02      0.8500596567E-02
          0                10           1             6    2     1       0.1847706895E-03       6    2    1         0.2378832866E-02      0.3901510679E-02
          0                11           1             4   15     1       0.9880990123E-04       6    2    1         0.1118491125E-02      0.1801479274E-02

    ------------------------------------------------
       NWT REQUIRED           11 OUTER ITERATIONS 
       AND A TOTAL OF         18 INNER ITERATIONS.
    ------------------------------------------------

 NO OUTPUT CONTROL FOR STRESS PERIOD    6   TIME STEP    9
 
 SOLVING FOR HEAD 
                                                   Max.-Head-Change                         Max.-Flux-Residual
  Residual-Control   Outer-Iter.   Inner-Iter.     Column Row Layer    Maximum-Head-Change  Column Row Layer    Maximum-Flux-Residual          L2-NORM 
          0                 1           2             7    2     1       0.1519071277E+00       4    7    1         0.1937262311E+01      0.7509838809E+01
          0                 2           2             7    2     1       0.6706379000E-01       7    2    1         0.7870232032E+00      0.1952342225E+01
          0                 3           2             7    2     1       0.2960075855E-01       7    2    1         0.3472546027E+00      0.7973778630E+00
          0                 4           2             7    2     1       0.1306388011E-01       7    2    1         0.1532852549E+00      0.3384857478E+00
          0                 5           2             7    2     1       0.5765201107E-02       7    2    1         0.6764755974E-01      0.1443862331E+00
          0                 6           2             7    2     1       0.2544121430E-02       7    2    1         0.2985333192E-01      0.6178345654E-01
          0                 7           2             7    2     1       0.1122656327E-02       7    2    1         0.1317384374E-01      0.2651079591E-01
          0                 8           1             7    2     1       0.4953868069E-03       7    2    1         0.5813252435E-02      0.1140739539E-01
          0                 9           1             7    2     1       0.2185913103E-03       7    2    1         0.2565161913E-02      0.4925290753E-02
          0                10           1             4   15     1       0.1350389108E-03       7    2    1         0.1131883274E-02      0.2138793431E-02
                                                   Max.-Head-Change                         Max.-Flux-Residual
  Residual-Control   Outer-Iter.   Inner-Iter.     Column Row Layer    Maximum-Head-Change  Column Row Layer    Maximum-Flux-Residual          L2-NORM 
          0                11           1             4   15     1       0.1018663625E-03       7    2    1         0.4994377742E-03      0.9407999167E-03
          0                12           1             4   15     1       0.7683649282E-04       7    2    1         0.2203714766E-03      0.4274231235E-03

    ------------------------------------------------
       NWT REQUIRED           12 OUTER ITERATIONS 
       AND A TOTAL OF         19 INNER ITERATIONS.
    ------------------------------------------------

 OUTPUT CONTROL FOR STRESS PERIOD    6   TIME STEP   10
    PRINT BUDGET
    SAVE BUDGET

  HEAD DEP BOUNDS   PERIOD    6   STEP    10
 BOUNDARY      1   LAYER   1   ROW    13   COL     1   RATE   -0.283799    
 BOUNDARY      2   LAYER   1   ROW    14   COL     9   RATE    0.205224    



 STREAM LISTING     PERIOD      6   STEP       10

 LAYER ROW COL. STREAM  RCH.  FLOW INTO     FLOW TO   FLOW OUT OF   OVRLND.     DIRECT     STREAM       STREAM     STREAM     STREAM   STREAMBED  STREAMBED
                SEG.NO.  NO.  STRM. RCH.    AQUIFER    STRM. RCH.    RUNOFF     PRECIP       ET          HEAD       DEPTH      WIDTH   CONDCTNC.   GRADIENT

   1    1    1     1     1    2.5000E+01  1.1987E+00   2.3801E+01  0.000E+00  0.000E+00  0.000E+00  1.09422E+03  1.171E+00  1.294E+01  5.824E-01  6.861E-01
   1    2    2     1     2    2.3801E+01  2.7268E+00   2.1074E+01  0.000E+00  0.000E+00  0.000E+00  1.08920E+03  1.141E+00  1.254E+01  8.775E-01  1.036E+00
   1    3    3     1     3    2.1074E+01  2.9192E+00   1.8155E+01  0.000E+00  0.000E+00  0.000E+00  1.08351E+03  1.094E+00  1.188E+01  7.131E-01  1.365E+00
   1    3    4     1     4    1.8155E+01  2.4803E+00   1.5675E+01  0.000E+00  0.000E+00  0.000E+00  1.07846E+03  1.048E+00  1.104E+01  6.127E-01  1.349E+00
   1    4    5     2     1    5.6749E+00  2.6694E+00   3.0055E+00  0.000E+00  0.000E+00  0.000E+00  1.07236E+03  4.223E-01  1.200E+01  7.800E-01  1.141E+00
   1    5    6     2     2    3.0055E+00  1.9604E+00   1.0451E+00  0.000E+00  0.000E+00  0.000E+00  1.06678E+03  2.673E-01  1.200E+01  6.000E-01  1.089E+00
   1    6    6     2     3    1.0451E+00  1.0451E+00   0.0000E+00  0.000E+00  0.000E+00  0.000E+00  1.06183E+03  4.044E-02  1.200E+01  6.000E-01  1.013E+00
   1    7    6     2     4    0.0000E+00  0.0000E+00   0.0000E+00  0.000E+00  0.000E+00  0.000E+00  1.05708E+03  0.000E+00  1.200E+01  6.000E-01  1.000E+00
   1    8    6     2     5    0.0000E+00  0.0000E+00   0.0000E+00  0.000E+00  0.000E+00  0.000E+00  1.05236E+03  0.000E+00  1.200E+01  6.000E-01  1.000E+00
   1    3    5     3     1    1.0000E+01  1.0084E+00   8.9916E+00  0.000E+00  0.000E+00  0.000E+00  1.07555E+03  1.909E+00  9.636E+00  7.227E-01  6.976E-01
   1    3    6     3     2    8.9916E+00  7.6220E-01   8.2294E+00  0.000E+00  0.000E+00  0.000E+00  1.07264E+03  1.727E+00  8.909E+00  6.682E-01  5.704E-01
   1    3    7     3     3    8.2294E+00  6.0807E-01   7.6213E+00  0.000E+00  0.000E+00  0.000E+00  1.06987E+03  1.555E+00  8.218E+00  5.547E-01  5.481E-01
   1    4    8     3     4    7.6213E+00  1.4293E+00   6.1920E+00  0.000E+00  0.000E+00  0.000E+00  1.06682E+03  1.364E+00  7.455E+00  6.709E-01  1.065E+00
   1    5    8     3     5    6.1920E+00  1.5790E+00   4.6130E+00  0.000E+00  0.000E+00  0.000E+00  1.06362E+03  1.164E+00  6.655E+00  4.991E-01  1.582E+00
   1    6    8     3     6    4.6130E+00  5.5980E-01   4.0532E+00  0.000E+00  0.000E+00  0.000E+00  1.06158E+03  1.036E+00  6.145E+00  1.844E-01  1.518E+00
   1    5   10     4     1    1.0000E+01  9.0525E-01   9.0947E+00  0.000E+00  0.000E+00  0.000E+00  1.07835E+03  6.210E-01  1.000E+01  2.500E-01  1.207E+00
   1    5    9     4     2    9.0947E+00  1.7835E+00   7.3113E+00  0.000E+00  0.000E+00  0.000E+00  1.07148E+03  5.670E-01  1.000E+01  5.000E-01  1.189E+00
   1    6    8     4     3    7.3113E+00  1.2257E+00   6.0855E+00  0.000E+00  0.000E+00  0.000E+00  1.06368E+03  5.021E-01  1.000E+01  3.500E-01  1.167E+00
   1    6    8     5     1    1.0139E+01  4.3357E-01   9.7052E+00  0.000E+00  0.000E+00  0.000E+00  1.05867E+03  6.698E-01  1.506E+01  6.023E-01  2.400E-01
   1    7    7     5     2    9.7052E+00  1.4255E+00   8.2798E+00  0.000E+00  0.000E+00  0.000E+00  1.05415E+03  6.471E-01  1.419E+01  7.097E-01  6.695E-01
   1    8    7     5     3    8.2798E+00  1.0860E+00   7.1938E+00  0.000E+00  0.000E+00  0.000E+00  1.04986E+03  6.139E-01  1.297E+01  4.539E-01  7.975E-01
   1    8    6     5     4    7.1938E+00  1.0620E+00   6.1318E+00  0.000E+00  0.000E+00  0.000E+00  1.04683E+03  5.826E-01  1.186E+01  2.964E-01  1.194E+00
   1    9    6     6     1    6.1318E+00  2.0314E+00   4.1004E+00  0.000E+00  0.000E+00  0.000E+00  1.04320E+03  4.713E-01  1.200E+01  6.000E-01  1.129E+00
   1   10    7     6     2    4.1004E+00  1.3184E+00   2.7820E+00  0.000E+00  0.000E+00  0.000E+00  1.03855E+03  3.715E-01  1.200E+01  6.000E-01  7.324E-01
   1   11    7     6     3    2.7820E+00  1.0692E+00   1.7128E+00  0.000E+00  0.000E+00  0.000E+00  1.03392E+03  2.877E-01  1.200E+01  6.000E-01  5.940E-01
   1   12    7     6     4    1.7128E+00  5.9402E-01   1.1187E+00  0.000E+00  0.000E+00  0.000E+00  1.02931E+03  2.181E-01  1.200E+01  6.000E-01  3.300E-01
   1   13    7     6     5    1.1187E+00 -7.9201E-01   1.9108E+00  0.000E+00  0.000E+00  0.000E+00  1.02614E+03  2.271E-01  1.200E+01  2.400E-01 -1.100E+00
   1   14    9     7     1    1.5000E+02  1.5021E+00   1.4850E+02  0.000E+00  0.000E+00  0.000E+00  1.03987E+03  2.287E+00  5.529E+01  5.593E+00  8.953E-02
   1   13    8     7     2    1.4850E+02  1.5152E+00   1.4698E+02  0.000E+00  0.000E+00  0.000E+00  1.03478E+03  2.279E+00  5.526E+01  6.148E+00  8.216E-02
   1   13    7     7     3    1.4698E+02  1.4217E+00   1.4556E+02  0.000E+00  0.000E+00  0.000E+00  1.02969E+03  2.271E+00  5.522E+01  5.585E+00  8.485E-02
   1   13    6     8     1    1.4747E+02  2.7593E-01   1.4720E+02  0.000E+00  0.000E+00  0.000E+00  1.02467E+03  2.798E+00  4.057E+01  4.134E+00  2.225E-02
   1   13    5     8     2    1.4720E+02 -3.9478E-01   1.4759E+02  0.000E+00  0.000E+00  0.000E+00  1.01842E+03  2.798E+00  4.058E+01  4.135E+00 -3.182E-02
   1   13    4     8     3    1.4759E+02 -1.2228E+00   1.4881E+02  0.000E+00  0.000E+00  0.000E+00  1.01218E+03  2.804E+00  4.066E+01  4.143E+00 -9.837E-02
   1   13    3     8     4    1.4881E+02 -1.8848E+00   1.5070E+02  0.000E+00  0.000E+00  0.000E+00  1.00594E+03  2.815E+00  4.082E+01  4.160E+00 -1.510E-01
   1   13    2     8     5    1.5070E+02 -2.1241E+00   1.5282E+02  0.000E+00  0.000E+00  0.000E+00  9.99704E+02  2.829E+00  4.102E+01  4.180E+00 -1.694E-01
   1   13    1     8     6    1.5282E+02 -1.8911E+00   1.5471E+02  0.000E+00  0.000E+00  0.000E+00  9.94718E+02  2.843E+00  4.123E+01  2.521E+00 -2.501E-01



 UBDSV3 SAVING "           GW ET" ON UNIT  61 AT TIME STEP 10, STRESS PERIOD   6
 UBDSV3 SAVING "    UZF RECHARGE" ON UNIT  61 AT TIME STEP 10, STRESS PERIOD   6
 UBDSV3 SAVING " SURFACE LEAKAGE" ON UNIT  61 AT TIME STEP 10, STRESS PERIOD   6
 UBDSV3 SAVING "       HORT+DUNN" ON UNIT  61 AT TIME STEP 10, STRESS PERIOD   6
 UBDSV3 SAVING "  STORAGE CHANGE" ON UNIT  61 AT TIME STEP 10, STRESS PERIOD   6


UNSATURATED ZONE PACKAGE VOLUMETRIC BUDGET FOR  TIME STEP    10 STRESS PERIOD    6
  ------------------------------------------------------------------------------



     CUMULATIVE VOLUMES      L**3       RATES FOR THIS TIME STEP      L**3/T
     ------------------                 ------------------------

           IN:                                      IN:
           ---                                      ---
        INFILTRATION =  1091701403.6514          INFILTRATION =          84.7500

          OUT:                                     OUT:
          ----                                     ----
              UZF ET =        8040.5740                UZF ET =       0.0000E+00
        UZF RECHARGE =   307609001.7874          UZF RECHARGE =          48.6585

            IN - OUT =   784084361.2900              IN - OUT =          36.0915

          STORAGE:                                 STORAGE:
          --------                                 --------
      STORAGE CHANGE =   783634407.2971        STORAGE CHANGE =          36.1682

 PERCENT DISCREPANCY IS DIFFERENCE BETWEEN IN-OUT MINUS CHANGE IN STORAGE
 DIVIDED BY THE AVERAGE OF IN AND OUT TIMES 100

 PERCENT DISCREPANCY =           0.01     PERCENT DISCREPANCY =          -0.09






1
  VOLUMETRIC BUDGET FOR ENTIRE MODEL AT END OF TIME STEP   10, STRESS PERIOD   6
  ------------------------------------------------------------------------------

     CUMULATIVE VOLUMES      L**3       RATES FOR THIS TIME STEP      L**3/T
     ------------------                 ------------------------

           IN:                                      IN:
           ---                                      ---
             STORAGE     =    49450360.0000               STORAGE     =           0.2459
       CONSTANT HEAD     =           0.0000         CONSTANT HEAD     =           0.0000
               WELLS     =           0.0000                 WELLS     =           0.0000
     HEAD DEP BOUNDS     =     3001363.0000       HEAD DEP BOUNDS     =           0.2052
      STREAM LEAKAGE     =   581322240.0000        STREAM LEAKAGE     =          38.5963
        UZF RECHARGE     =   307609056.0000          UZF RECHARGE     =          48.6585
               GW ET     =           0.0000                 GW ET     =           0.0000
     SURFACE LEAKAGE     =           0.0000       SURFACE LEAKAGE     =           0.0000

                TOTAL IN =   941383040.0000                  TOTAL IN =          87.7059

          OUT:                                     OUT:
          ----                                     ----
             STORAGE     =   245674976.0000               STORAGE     =          55.1874
       CONSTANT HEAD     =           0.0000         CONSTANT HEAD     =           0.0000
               WELLS     =   236519984.0000                 WELLS     =           0.0000
     HEAD DEP BOUNDS     =     4088265.2500       HEAD DEP BOUNDS     =           0.2838
      STREAM LEAKAGE     =   116406096.0000        STREAM LEAKAGE     =           8.3096
        UZF RECHARGE     =           0.0000          UZF RECHARGE     =           0.0000
               GW ET     =   338685408.0000                 GW ET     =          23.9245
     SURFACE LEAKAGE     =           0.0000       SURFACE LEAKAGE     =           0.0000

               TOTAL OUT =   941374720.0000                 TOTAL OUT =          87.7052

                IN - OUT =        8320.0000                  IN - OUT =       6.7139E-04

     PERCENT DISCREPANCY =           0.00         PERCENT DISCREPANCY =           0.00






         TIME SUMMARY AT END OF TIME STEP   10 IN STRESS PERIOD    6
                    SECONDS     MINUTES      HOURS       DAYS        YEARS
                    -----------------------------------------------------------
   TIME STEP LENGTH 1.95033E+05  3250.6      54.176      2.2573     6.18023E-03
 STRESS PERIOD TIME 1.31823E+06  21971.      366.18      15.257     4.17723E-02
         TOTAL TIME 1.44582E+07 2.40970E+05  4016.2      167.34     0.45815    
1
 
 SOLVING FOR HEAD 
                                                   Max.-Head-Change                         Max.-Flux-Residual
  Residual-Control   Outer-Iter.   Inner-Iter.     Column Row Layer    Maximum-Head-Change  Column Row Layer    Maximum-Flux-Residual          L2-NORM 
          0                 1           2             6    2     1       0.1585575327E+00       4    7    1         0.1931411011E+01      0.7308812005E+01
          0                 2           2             6    2     1       0.7016629685E-01       6    2    1         0.7470944182E+00      0.1789219175E+01
          0                 3           2             6    2     1       0.3104696739E-01       6    2    1         0.3304398796E+00      0.7143493695E+00
          0                 4           2             6    2     1       0.1373636923E-01       6    2    1         0.1462257595E+00      0.2978945417E+00
          0                 5           2             6    2     1       0.6077044929E-02       6    2    1         0.6469334141E-01      0.1251863410E+00
          0                 6           2             6    2     1       0.2688341674E-02       6    2    1         0.2862048285E-01      0.5292955633E-01
          0                 7           1             6    2     1       0.1189189366E-02       6    2    1         0.1266086524E-01      0.2249899364E-01
          0                 8           1             6    2     1       0.5260108052E-03       6    2    1         0.5600483354E-02      0.9612859518E-02
          0                 9           1             6    2     1       0.2326577933E-03       6    2    1         0.2477222472E-02      0.4130462446E-02
          0                10           1             4   15     1       0.1366828699E-03       6    2    1         0.1095681223E-02      0.1789329798E-02
                                                   Max.-Head-Change                         Max.-Flux-Residual
  Residual-Control   Outer-Iter.   Inner-Iter.     Column Row Layer    Maximum-Head-Change  Column Row Layer    Maximum-Flux-Residual          L2-NORM 
          0                11           1             4   15     1       0.1006779419E-03       6    2    1         0.4846017617E-03      0.7875463314E-03
          0                12           1             4   15     1       0.7415252495E-04       6    2    1         0.2143231044E-03      0.3592676934E-03

    ------------------------------------------------
       NWT REQUIRED           12 OUTER ITERATIONS 
       AND A TOTAL OF         18 INNER ITERATIONS.
    ------------------------------------------------

 NO OUTPUT CONTROL FOR STRESS PERIOD    6   TIME STEP   11
 
 SOLVING FOR HEAD 
                                                   Max.-Head-Change                         Max.-Flux-Residual
  Residual-Control   Outer-Iter.   Inner-Iter.     Column Row Layer    Maximum-Head-Change  Column Row Layer    Maximum-Flux-Residual          L2-NORM 
          0                 1           2             7    2     1       0.1445092354E+00       4    7    1         0.1924996740E+01      0.6986409353E+01
          0                 2           2             7    2     1       0.6370081317E-01       7    2    1         0.6186396856E+00      0.1516322464E+01
          0                 3           2             7    2     1       0.2666600710E-01       7    2    1         0.2589129625E+00      0.5674720409E+00
          0                 4           2             7    2     1       0.1091230909E-01       7    2    1         0.1059761550E+00      0.2253094051E+00
          0                 5           2             7    2     1       0.4465215024E-02       7    2    1         0.4336555719E-01      0.8980795608E-01
          0                 6           2             7    2     1       0.1827034702E-02       7    2    1         0.1774469621E-01      0.3593561772E-01
          0                 7           1             7    2     1       0.7475425465E-03       7    2    1         0.7260533738E-02      0.1443838279E-01
          0                 8           1             7    2     1       0.3058535247E-03       7    2    1         0.2970674840E-02      0.5826818368E-02
          0                 9           1             4   15     1       0.1906597889E-03       7    2    1         0.1215431640E-02      0.2368108972E-02
          0                10           1             4   15     1       0.1369211522E-03       7    2    1         0.4972761437E-03      0.9779684148E-03
          0                11           1             4   15     1       0.9831897803E-04       7    2    1         0.2034502775E-03      0.4208099414E-03

    ------------------------------------------------
       NWT REQUIRED           11 OUTER ITERATIONS 
       AND A TOTAL OF         17 INNER ITERATIONS.
    ------------------------------------------------

 NO OUTPUT CONTROL FOR STRESS PERIOD    6   TIME STEP   12
 
 SOLVING FOR HEAD 
                                                   Max.-Head-Change                         Max.-Flux-Residual
  Residual-Control   Outer-Iter.   Inner-Iter.     Column Row Layer    Maximum-Head-Change  Column Row Layer    Maximum-Flux-Residual          L2-NORM 
          0                 1           2             3   10     1       0.2286086242E+00       3   10    1         0.2028114486E+01      0.7107254613E+01
          0                 2           2             3   10     1       0.1038962355E+00       3   10    1         0.9236378827E+00      0.1600376141E+01
          0                 3           2             3   10     1       0.4718333267E-01       3   10    1         0.4195860462E+00      0.6245034988E+00
          0                 4           2             3   10     1       0.2142401177E-01       3   10    1         0.1905407961E+00      0.2616419049E+00
          0                 5           2             3   10     1       0.9727259523E-02       3   10    1         0.8651498365E-01      0.1115253844E+00
          0                 6           2             3   10     1       0.4416430326E-02       3   10    1         0.3928072500E-01      0.4812135846E-01
          0                 7           1             3   10     1       0.2005152834E-02       3   10    1         0.1783443830E-01      0.2097327100E-01
          0                 8           1             3   10     1       0.9103753036E-03       3   10    1         0.8097202264E-02      0.9219559600E-02
          0                 9           1             3   10     1       0.4133244359E-03       3   10    1         0.3676271244E-02      0.4084063335E-02
          0                10           1             3   10     1       0.1876548603E-03       3   10    1         0.1669082464E-02      0.1823510176E-02
          0                11           1             4   15     1       0.9406360049E-04       3   10    1         0.7577853824E-03      0.8226434179E-03

    ------------------------------------------------
       NWT REQUIRED           11 OUTER ITERATIONS 
       AND A TOTAL OF         17 INNER ITERATIONS.
    ------------------------------------------------

 NO OUTPUT CONTROL FOR STRESS PERIOD    6   TIME STEP   13
 
 SOLVING FOR HEAD 
                                                   Max.-Head-Change                         Max.-Flux-Residual
  Residual-Control   Outer-Iter.   Inner-Iter.     Column Row Layer    Maximum-Head-Change  Column Row Layer    Maximum-Flux-Residual          L2-NORM 
          0                 1           2             3    8     1       0.2729765115E+00       3    8    1         0.2198077668E+01      0.8043494290E+01
          0                 2           2             3    8     1       0.1215360465E+00       3    8    1         0.9805032984E+00      0.2375287887E+01
          0                 3           2             3    8     1       0.5408116068E-01       3    8    1         0.4363651245E+00      0.9997251111E+00
          0                 4           2             3    8     1       0.2406229426E-01       3    8    1         0.1941705956E+00      0.4325876170E+00
          0                 5           2             3    8     1       0.1070569466E-01       3    8    1         0.8639088216E-01      0.1885033289E+00
          0                 6           2             3    8     1       0.4763072974E-02       3    8    1         0.3843665362E-01      0.8249859611E-01
          0                 7           2             3    8     1       0.2119123080E-02       3    8    1         0.1710083672E-01      0.3621749188E-01
          0                 8           1             3    8     1       0.9428060946E-03       3    8    1         0.7608270266E-02      0.1593747246E-01
          0                 9           1             3    8     1       0.4194559634E-03       3    8    1         0.3384945777E-02      0.7030016141E-02
          0                10           1             3    8     1       0.1866160296E-03       3    8    1         0.1505966656E-02      0.3108977395E-02
          0                11           1             4   15     1       0.8751888079E-04       3    8    1         0.6700044848E-03      0.1375656328E-02

    ------------------------------------------------
       NWT REQUIRED           11 OUTER ITERATIONS 
       AND A TOTAL OF         18 INNER ITERATIONS.
    ------------------------------------------------

 NO OUTPUT CONTROL FOR STRESS PERIOD    6   TIME STEP   14
 
 SOLVING FOR HEAD 
                                                   Max.-Head-Change                         Max.-Flux-Residual
  Residual-Control   Outer-Iter.   Inner-Iter.     Column Row Layer    Maximum-Head-Change  Column Row Layer    Maximum-Flux-Residual          L2-NORM 
          0                 1           2             1    4     1       0.4437330032E+00       1    4    1         0.3247890952E+01      0.8442886279E+01
          0                 2           2             1    4     1       0.2335987440E+00       1    4    1         0.1705459877E+01      0.2769560281E+01
          0                 3           2             1    4     1       0.1227246673E+00       1    4    1         0.8974330140E+00      0.1265488044E+01
          0                 4           2             1    4     1       0.6413378955E-01       1    4    1         0.4688702783E+00      0.6021034589E+00
          0                 5           2             1    4     1       0.3268956690E-01       1    4    1         0.2390071092E+00      0.2882113672E+00
          0                 6           2             1    4     1       0.1666192145E-01       1    4    1         0.1218229902E+00      0.1399924417E+00
          0                 7           2             1    4     1       0.8492518517E-02       1    4    1         0.6209352446E-01      0.6879953753E-01
          0                 8           2             1    4     1       0.4328571959E-02       1    4    1         0.3164881534E-01      0.3412350134E-01
          0                 9           2             1    4     1       0.2206227721E-02       1    4    1         0.1613115380E-01      0.1704487285E-01
          0                10           1             1    4     1       0.1124486333E-02       1    4    1         0.8221875517E-02      0.8559850154E-02
                                                   Max.-Head-Change                         Max.-Flux-Residual
  Residual-Control   Outer-Iter.   Inner-Iter.     Column Row Layer    Maximum-Head-Change  Column Row Layer    Maximum-Flux-Residual          L2-NORM 
          0                11           1             1    4     1       0.5731345713E-03       1    4    1         0.4190583834E-02      0.4316122448E-02
          0                12           1             1    4     1       0.2921177378E-03       1    4    1         0.2135879642E-02      0.2182940502E-02
          0                13           1             1    4     1       0.1488875515E-03       1    4    1         0.1088624104E-02      0.1106618214E-02
          0                14           1             1    4     1       0.7588538880E-04       1    4    1         0.5548534373E-03      0.5620231223E-03

    ------------------------------------------------
       NWT REQUIRED           14 OUTER ITERATIONS 
       AND A TOTAL OF         23 INNER ITERATIONS.
    ------------------------------------------------

 OUTPUT CONTROL FOR STRESS PERIOD    6   TIME STEP   15
    PRINT BUDGET
    PRINT HEAD FOR ALL LAYERS
    SAVE HEAD FOR ALL LAYERS
    SAVE BUDGET

  HEAD DEP BOUNDS   PERIOD    6   STEP    15
 BOUNDARY      1   LAYER   1   ROW    13   COL     1   RATE   -0.284179    
 BOUNDARY      2   LAYER   1   ROW    14   COL     9   RATE    0.205174    



 STREAM LISTING     PERIOD      6   STEP       15

 LAYER ROW COL. STREAM  RCH.  FLOW INTO     FLOW TO   FLOW OUT OF   OVRLND.     DIRECT     STREAM       STREAM     STREAM     STREAM   STREAMBED  STREAMBED
                SEG.NO.  NO.  STRM. RCH.    AQUIFER    STRM. RCH.    RUNOFF     PRECIP       ET          HEAD       DEPTH      WIDTH   CONDCTNC.   GRADIENT

   1    1    1     1     1    2.5000E+01  1.1980E+00   2.3802E+01  0.000E+00  0.000E+00  0.000E+00  1.09422E+03  1.171E+00  1.294E+01  5.824E-01  6.856E-01
   1    2    2     1     2    2.3802E+01  2.7035E+00   2.1098E+01  0.000E+00  0.000E+00  0.000E+00  1.08920E+03  1.141E+00  1.254E+01  8.777E-01  1.027E+00
   1    3    3     1     3    2.1098E+01  2.9211E+00   1.8177E+01  0.000E+00  0.000E+00  0.000E+00  1.08351E+03  1.094E+00  1.189E+01  7.135E-01  1.365E+00
   1    3    4     1     4    1.8177E+01  2.4821E+00   1.5695E+01  0.000E+00  0.000E+00  0.000E+00  1.07846E+03  1.048E+00  1.105E+01  6.131E-01  1.349E+00
   1    4    5     2     1    5.6952E+00  2.6703E+00   3.0249E+00  0.000E+00  0.000E+00  0.000E+00  1.07236E+03  4.235E-01  1.200E+01  7.800E-01  1.141E+00
   1    5    6     2     2    3.0249E+00  1.9613E+00   1.0636E+00  0.000E+00  0.000E+00  0.000E+00  1.06678E+03  2.688E-01  1.200E+01  6.000E-01  1.090E+00
   1    6    6     2     3    1.0636E+00  1.0636E+00   0.0000E+00  0.000E+00  0.000E+00  0.000E+00  1.06183E+03  4.087E-02  1.200E+01  6.000E-01  1.014E+00
   1    7    6     2     4    0.0000E+00  0.0000E+00   0.0000E+00  0.000E+00  0.000E+00  0.000E+00  1.05708E+03  0.000E+00  1.200E+01  6.000E-01  1.000E+00
   1    8    6     2     5    0.0000E+00  0.0000E+00   0.0000E+00  0.000E+00  0.000E+00  0.000E+00  1.05236E+03  0.000E+00  1.200E+01  6.000E-01  1.000E+00
   1    3    5     3     1    1.0000E+01  8.0748E-01   9.1925E+00  0.000E+00  0.000E+00  0.000E+00  1.07555E+03  1.909E+00  9.636E+00  7.227E-01  5.586E-01
   1    3    6     3     2    9.1925E+00  5.2323E-01   8.6693E+00  0.000E+00  0.000E+00  0.000E+00  1.07264E+03  1.727E+00  8.909E+00  6.682E-01  3.915E-01
   1    3    7     3     3    8.6693E+00  4.5338E-01   8.2159E+00  0.000E+00  0.000E+00  0.000E+00  1.06987E+03  1.555E+00  8.218E+00  5.547E-01  4.086E-01
   1    4    8     3     4    8.2159E+00  1.4469E+00   6.7690E+00  0.000E+00  0.000E+00  0.000E+00  1.06682E+03  1.364E+00  7.455E+00  6.709E-01  1.078E+00
   1    5    8     3     5    6.7690E+00  1.5790E+00   5.1900E+00  0.000E+00  0.000E+00  0.000E+00  1.06362E+03  1.164E+00  6.655E+00  4.991E-01  1.582E+00
   1    6    8     3     6    5.1900E+00  5.5980E-01   4.6302E+00  0.000E+00  0.000E+00  0.000E+00  1.06158E+03  1.036E+00  6.145E+00  1.844E-01  1.518E+00
   1    5   10     4     1    1.0000E+01  9.0525E-01   9.0947E+00  0.000E+00  0.000E+00  0.000E+00  1.07835E+03  6.210E-01  1.000E+01  2.500E-01  1.207E+00
   1    5    9     4     2    9.0947E+00  1.7835E+00   7.3113E+00  0.000E+00  0.000E+00  0.000E+00  1.07148E+03  5.670E-01  1.000E+01  5.000E-01  1.189E+00
   1    6    8     4     3    7.3113E+00  1.2257E+00   6.0855E+00  0.000E+00  0.000E+00  0.000E+00  1.06368E+03  5.021E-01  1.000E+01  3.500E-01  1.167E+00
   1    6    8     5     1    1.0716E+01  3.8702E-01   1.0329E+01  0.000E+00  0.000E+00  0.000E+00  1.05868E+03  6.837E-01  1.560E+01  6.239E-01  2.068E-01
   1    7    7     5     2    1.0329E+01  1.4815E+00   8.8472E+00  0.000E+00  0.000E+00  0.000E+00  1.05416E+03  6.618E-01  1.475E+01  7.375E-01  6.696E-01
   1    8    7     5     3    8.8472E+00  1.1226E+00   7.7246E+00  0.000E+00  0.000E+00  0.000E+00  1.04988E+03  6.288E-01  1.351E+01  4.730E-01  7.911E-01
   1    8    6     5     4    7.7246E+00  1.1142E+00   6.6104E+00  0.000E+00  0.000E+00  0.000E+00  1.04685E+03  5.977E-01  1.239E+01  3.097E-01  1.199E+00
   1    9    6     6     1    6.6104E+00  2.0241E+00   4.5863E+00  0.000E+00  0.000E+00  0.000E+00  1.04322E+03  4.975E-01  1.200E+01  6.000E-01  1.124E+00
   1   10    7     6     2    4.5863E+00  1.3215E+00   3.2649E+00  0.000E+00  0.000E+00  0.000E+00  1.03858E+03  4.021E-01  1.200E+01  6.000E-01  7.341E-01
   1   11    7     6     3    3.2649E+00  1.0443E+00   2.2206E+00  0.000E+00  0.000E+00  0.000E+00  1.03396E+03  3.243E-01  1.200E+01  6.000E-01  5.802E-01
   1   12    7     6     4    2.2206E+00  5.5304E-01   1.6676E+00  0.000E+00  0.000E+00  0.000E+00  1.02935E+03  2.638E-01  1.200E+01  6.000E-01  3.072E-01
   1   13    7     6     5    1.6676E+00 -7.8435E-01   2.4519E+00  0.000E+00  0.000E+00  0.000E+00  1.02618E+03  2.731E-01  1.200E+01  2.400E-01 -1.089E+00
   1   14    9     7     1    1.5000E+02  1.4948E+00   1.4851E+02  0.000E+00  0.000E+00  0.000E+00  1.03987E+03  2.287E+00  5.529E+01  5.593E+00  8.909E-02
   1   13    8     7     2    1.4851E+02  1.5860E+00   1.4692E+02  0.000E+00  0.000E+00  0.000E+00  1.03478E+03  2.279E+00  5.526E+01  6.148E+00  8.599E-02
   1   13    7     7     3    1.4692E+02  1.3424E+00   1.4558E+02  0.000E+00  0.000E+00  0.000E+00  1.02969E+03  2.271E+00  5.522E+01  5.585E+00  8.012E-02
   1   13    6     8     1    1.4803E+02  1.8951E-01   1.4784E+02  0.000E+00  0.000E+00  0.000E+00  1.02468E+03  2.802E+00  4.063E+01  4.141E+00  1.526E-02
   1   13    5     8     2    1.4784E+02 -5.7633E-01   1.4842E+02  0.000E+00  0.000E+00  0.000E+00  1.01843E+03  2.804E+00  4.065E+01  4.143E+00 -4.637E-02
   1   13    4     8     3    1.4842E+02 -1.4161E+00   1.4983E+02  0.000E+00  0.000E+00  0.000E+00  1.01219E+03  2.811E+00  4.075E+01  4.153E+00 -1.137E-01
   1   13    3     8     4    1.4983E+02 -2.0876E+00   1.5192E+02  0.000E+00  0.000E+00  0.000E+00  1.00595E+03  2.823E+00  4.093E+01  4.171E+00 -1.668E-01
   1   13    2     8     5    1.5192E+02 -2.0458E+00   1.5397E+02  0.000E+00  0.000E+00  0.000E+00  9.99712E+02  2.837E+00  4.114E+01  4.193E+00 -1.627E-01
   1   13    1     8     6    1.5397E+02 -1.9016E+00   1.5587E+02  0.000E+00  0.000E+00  0.000E+00  9.94726E+02  2.851E+00  4.134E+01  2.528E+00 -2.508E-01



 UBDSV3 SAVING "           GW ET" ON UNIT  61 AT TIME STEP 15, STRESS PERIOD   6
 UBDSV3 SAVING "    UZF RECHARGE" ON UNIT  61 AT TIME STEP 15, STRESS PERIOD   6
 UBDSV3 SAVING " SURFACE LEAKAGE" ON UNIT  61 AT TIME STEP 15, STRESS PERIOD   6
 UBDSV3 SAVING "       HORT+DUNN" ON UNIT  61 AT TIME STEP 15, STRESS PERIOD   6
 UBDSV3 SAVING "  STORAGE CHANGE" ON UNIT  61 AT TIME STEP 15, STRESS PERIOD   6


UNSATURATED ZONE PACKAGE VOLUMETRIC BUDGET FOR  TIME STEP    15 STRESS PERIOD    6
  ------------------------------------------------------------------------------



     CUMULATIVE VOLUMES      L**3       RATES FOR THIS TIME STEP      L**3/T
     ------------------                 ------------------------

           IN:                                      IN:
           ---                                      ---
        INFILTRATION =  1202704104.7451          INFILTRATION =          84.7500

          OUT:                                     OUT:
          ----                                     ----
              UZF ET =        8040.5740                UZF ET =       0.0000E+00
        UZF RECHARGE =   380163315.1609          UZF RECHARGE =          67.4886

            IN - OUT =   822532749.0102              IN - OUT =          17.2614

          STORAGE:                                 STORAGE:
          --------                                 --------
      STORAGE CHANGE =   822218743.2739        STORAGE CHANGE =          17.6484

 PERCENT DISCREPANCY IS DIFFERENCE BETWEEN IN-OUT MINUS CHANGE IN STORAGE
 DIVIDED BY THE AVERAGE OF IN AND OUT TIMES 100

 PERCENT DISCREPANCY =           0.01     PERCENT DISCREPANCY =          -0.45






1
              HEAD IN LAYER   1 AT END OF TIME STEP  15 IN STRESS PERIOD    6
  ---------------------------------------------------------------------------

           1       2       3       4       5       6       7       8       9      10
 ...................................................................................
   1  1092.16 1087.67 6999.00 6999.00 6999.00 6999.00 6999.00 6999.00 6999.00 6999.00
   2  1087.75 1086.12 1078.18 6999.00 6999.00 1076.83 1076.14 1069.12 6999.00 6999.00
   3  6999.00 1077.59 1078.44 1073.82 1074.43 1071.85 1069.06 1069.39 6999.00 6999.00
   4  1066.84 1065.95 1064.78 1063.43 1066.02 1061.34 1059.82 1064.66 1062.12 6999.00
   5  1062.56 1059.32 1055.61 1053.23 1055.48 1060.31 1057.06 1060.36 1064.14 1065.50
   6  1058.75 1054.08 1050.50 1038.68 1041.97 1052.83 1053.89 1058.06 1057.64 1063.57
   7  1055.88 1049.02 1044.87 1030.02 1033.91 1045.56 1052.15 1052.59 1053.34 6999.00
   8  6999.00 1043.05 1040.27 1026.13 1029.73 1043.15 1047.51 1047.40 1049.80 6999.00
   9  6999.00 1037.13 1035.50 1022.33 1026.39 1039.85 1040.05 1041.49 1045.49 6999.00
  10  6999.00 1031.28 1031.22 1020.38 1023.03 1032.06 1036.38 1037.19 1041.78 1046.49
  11  6999.00 1023.76 1024.24 1023.82 1025.50 1028.73 1032.22 1034.17 1037.84 6999.00
  12  1006.72 1013.39 1015.74 1019.32 1022.05 1025.10 1028.43 1030.37 1035.20 6999.00
  13   995.48 1000.20 1006.45 1012.53 1018.57 1024.63 1029.45 1034.52 1035.82 6999.00
  14  6999.00 1012.62 1020.65 1025.25 1028.97 1032.65 1035.42 1035.55 1039.60 6999.00
  15  6999.00 6999.00 1026.44 1028.65 1031.31 1033.06 6999.00 6999.00 6999.00 6999.00
1
              HEAD IN LAYER   2 AT END OF TIME STEP  15 IN STRESS PERIOD    6
  ---------------------------------------------------------------------------

           1       2       3       4       5       6       7       8       9      10
 ...................................................................................
   1  1091.00 1087.13 6999.00 6999.00 6999.00 6999.00 6999.00 6999.00 6999.00 6999.00
   2  1087.51 1080.92 1075.49 6999.00 6999.00 1075.52 1074.63 1069.54 6999.00 6999.00
   3  6999.00 1073.88 1068.28 1064.48 1064.12 1065.44 1066.35 1067.90 6999.00 6999.00
   4  1065.93 1065.47 1062.39 1058.98 1057.60 1057.20 1058.65 1062.04 1061.78 6999.00
   5  1061.94 1058.69 1055.59 1053.53 1053.27 1053.63 1054.00 1055.88 1059.81 1063.77
   6  1058.10 1053.58 1050.11 1048.33 1048.59 1049.88 1051.23 1053.15 1056.81 1063.17
   7  1055.19 1048.60 1045.02 1043.47 1044.13 1045.80 1047.81 1050.33 1053.22 6999.00
   8  6999.00 1042.80 1040.28 1039.06 1039.88 1041.64 1043.56 1047.14 1049.50 6999.00
   9  6999.00 1036.80 1035.42 1034.76 1035.74 1037.51 1039.01 1041.39 1045.17 6999.00
  10  6999.00 1030.94 1030.79 1030.99 1032.19 1033.88 1035.19 1037.15 1041.37 1046.49
  11  6999.00 1023.96 1025.16 1027.61 1029.27 1031.03 1032.51 1034.19 1037.57 6999.00
  12  1007.02 1014.79 1019.97 1023.84 1026.52 1028.80 1030.51 1031.83 1035.18 6999.00
  13  1000.36 1007.92 1016.07 1021.40 1024.95 1027.88 1030.40 1032.92 1035.53 6999.00
  14  6999.00 1013.06 1019.74 1024.42 1028.03 1031.29 1033.78 1035.11 1037.10 6999.00
  15  6999.00 6999.00 1026.44 1028.65 1031.01 1032.79 6999.00 6999.00 6999.00 6999.00

 HEAD WILL BE SAVED ON UNIT   58 AT END OF TIME STEP   15, STRESS PERIOD    6
1
  VOLUMETRIC BUDGET FOR ENTIRE MODEL AT END OF TIME STEP   15, STRESS PERIOD   6
  ------------------------------------------------------------------------------

     CUMULATIVE VOLUMES      L**3       RATES FOR THIS TIME STEP      L**3/T
     ------------------                 ------------------------

           IN:                                      IN:
           ---                                      ---
             STORAGE     =    49668260.0000               STORAGE     =           0.1250
       CONSTANT HEAD     =           0.0000         CONSTANT HEAD     =           0.0000
               WELLS     =           0.0000                 WELLS     =           0.0000
     HEAD DEP BOUNDS     =     3270004.0000       HEAD DEP BOUNDS     =           0.2052
      STREAM LEAKAGE     =   631392960.0000        STREAM LEAKAGE     =          37.9451
        UZF RECHARGE     =   380163360.0000          UZF RECHARGE     =          67.4886
               GW ET     =           0.0000                 GW ET     =           0.0000
     SURFACE LEAKAGE     =           0.0000       SURFACE LEAKAGE     =           0.0000

                TOTAL IN =  1064494592.0000                  TOTAL IN =         105.7639

          OUT:                                     OUT:
          ----                                     ----
             STORAGE     =   325551968.0000               STORAGE     =          72.5000
       CONSTANT HEAD     =           0.0000         CONSTANT HEAD     =           0.0000
               WELLS     =   236519984.0000                 WELLS     =           0.0000
     HEAD DEP BOUNDS     =     4460050.5000       HEAD DEP BOUNDS     =           0.2842
      STREAM LEAKAGE     =   127734232.0000        STREAM LEAKAGE     =           8.8117
        UZF RECHARGE     =           0.0000          UZF RECHARGE     =           0.0000
               GW ET     =   370218944.0000                 GW ET     =          24.1676
     SURFACE LEAKAGE     =           0.0000       SURFACE LEAKAGE     =           0.0000

               TOTAL OUT =  1064485120.0000                 TOTAL OUT =         105.7635

                IN - OUT =        9472.0000                  IN - OUT =       4.7302E-04

     PERCENT DISCREPANCY =           0.00         PERCENT DISCREPANCY =           0.00






         TIME SUMMARY AT END OF TIME STEP   15 IN STRESS PERIOD    6
                    SECONDS     MINUTES      HOURS       DAYS        YEARS
                    -----------------------------------------------------------
   TIME STEP LENGTH 3.14103E+05  5235.0      87.251      3.6354     9.95332E-03
 STRESS PERIOD TIME 2.62800E+06  43800.      730.00      30.417     8.32763E-02
         TOTAL TIME 1.57680E+07 2.62800E+05  4380.0      182.50     0.49966    
1
1
                            STRESS PERIOD NO.    7, LENGTH =   2628000.    
                            -----------------------------------------------

                              NUMBER OF TIME STEPS =    15

                               MULTIPLIER FOR DELT =     1.100

                            INITIAL TIME STEP SIZE =   82713.07    

 WELL NO.  LAYER   ROW   COL   STRESS RATE         
 --------------------------------------------------
      1      1      6      4      -2.000    
      2      1      6      5      -2.000    
      3      1      7      4      -2.000    
      4      1      7      5      -2.000    
      5      1      8      4      -2.000    
      6      1      8      5      -2.000    
      7      1      9      4      -2.000    
      8      1      9      5      -2.000    
      9      1     10      4      -2.000    
     10      1     10      5      -2.000    

     10 WELLS

 REUSING NON-PARAMETER GHB CELLS FROM LAST STRESS PERIOD

      2 GHB CELLS

 REUSING STREAM SEGMENT DATA FROM LAST STRESS PERIOD



            AREAL INFILTRATION RATE
 READING ON UNIT   19 WITH FORMAT: (10F4.0)            

            1           2           3           4           5           6           7           8           9          10
 ........................................................................................................................
   1   3.0000E-09  6.0000E-09   0.000       0.000       0.000       0.000       0.000       0.000       0.000       0.000    
   2   6.0000E-09  3.0000E-09  6.0000E-09   0.000       0.000      2.4000E-08  2.4000E-08  1.5000E-08   0.000       0.000    
   3    0.000      1.5000E-08  3.0000E-09  3.0000E-09  2.4000E-08  2.4000E-08  1.5000E-08  1.5000E-08   0.000       0.000    
   4   2.4000E-08  1.5000E-08  3.0000E-09  3.0000E-09  3.0000E-09  3.0000E-09  3.0000E-09  3.0000E-09  6.0000E-09   0.000    
   5   2.4000E-08  1.5000E-08  3.0000E-09  3.0000E-09  3.0000E-09  3.0000E-09  3.0000E-09  3.0000E-09  3.0000E-09  3.0000E-09
   6   2.4000E-08  1.5000E-08  1.5000E-08  6.0000E-09  6.0000E-09  3.0000E-09  3.0000E-09  3.0000E-09  3.0000E-09  1.5000E-08
   7   2.4000E-08  1.5000E-08  1.5000E-08  6.0000E-09  6.0000E-09  3.0000E-09  3.0000E-09  6.0000E-09  6.0000E-09   0.000    
   8    0.000      1.5000E-08  1.5000E-08  6.0000E-09  6.0000E-09  3.0000E-09  3.0000E-09  6.0000E-09  1.5000E-08   0.000    
   9    0.000      1.5000E-08  1.5000E-08  6.0000E-09  6.0000E-09  3.0000E-09  3.0000E-09  6.0000E-09  1.5000E-08   0.000    
  10    0.000      1.5000E-08  1.5000E-08  6.0000E-09  6.0000E-09  3.0000E-09  3.0000E-09  6.0000E-09  1.5000E-08  2.4000E-08
  11    0.000      3.0000E-09  3.0000E-09  3.0000E-09  3.0000E-09  3.0000E-09  3.0000E-09  6.0000E-09  1.5000E-08   0.000    
  12   3.0000E-09  3.0000E-09  3.0000E-09  3.0000E-09  3.0000E-09  3.0000E-09  3.0000E-09  3.0000E-09  6.0000E-09   0.000    
  13   3.0000E-09  3.0000E-09  6.0000E-09  6.0000E-09  6.0000E-09  6.0000E-09  6.0000E-09  3.0000E-09  3.0000E-09   0.000    
  14    0.000      6.0000E-09  1.5000E-08  1.5000E-08  1.5000E-08  1.5000E-08  1.5000E-08  6.0000E-09  3.0000E-09   0.000    
  15    0.000       0.000      2.4000E-08  2.4000E-08  2.4000E-08  2.4000E-08   0.000       0.000       0.000       0.000    

USING ET RATE FROM PREVIOUS STRESS PERIOD. CURRENT PERIOD IS:       7

 USING ET EXTINCTION DEPTH FROM PREVIOUS STRESS PERIOD. CURRENT PERIOD IS:       7

 USING EXTINCTION WATER CONTENT FROM PREVIOUS STRESS PERIOD. CURRENT PERIOD IS:       7
 
 SOLVING FOR HEAD 
                                                   Max.-Head-Change                         Max.-Flux-Residual
  Residual-Control   Outer-Iter.   Inner-Iter.     Column Row Layer    Maximum-Head-Change  Column Row Layer    Maximum-Flux-Residual          L2-NORM 
          0                 1           2             1    4     1       0.1099586826E+00       1    4    1         0.3026126030E+01      0.5664593872E+01
          0                 2           2             1    4     1       0.5652631331E-01       1    4    1         0.1558822815E+01      0.2463241593E+01
          0                 3           2             1    4     1       0.2905786814E-01       1    4    1         0.8010265636E+00      0.1122680807E+01
          0                 4           2             1    4     1       0.1493734081E-01       1    4    1         0.4118059549E+00      0.5263030922E+00
          0                 5           2             1    4     1       0.7678580064E-02       1    4    1         0.2116876902E+00      0.2523203447E+00
          0                 6           2             1    4     1       0.3947183782E-02       1    4    1         0.1088189121E+00      0.1231961776E+00
          0                 7           2             1    4     1       0.2029050998E-02       1    4    1         0.5593845669E-01      0.6101662357E-01
          0                 8           1             1    4     1       0.1043032870E-02       1    4    1         0.2875517834E-01      0.3055106779E-01
          0                 9           1             1    4     1       0.5361701120E-03       1    4    1         0.1478158563E-01      0.1542370120E-01
          0                10           1             1    4     1       0.2756175649E-03       1    4    1         0.7598459945E-02      0.7839194351E-02
                                                   Max.-Head-Change                         Max.-Flux-Residual
  Residual-Control   Outer-Iter.   Inner-Iter.     Column Row Layer    Maximum-Head-Change  Column Row Layer    Maximum-Flux-Residual          L2-NORM 
          0                11           1             1    4     1       0.1416807814E-03       1    4    1         0.3905978289E-02      0.4012756576E-02
          0                12           1             4   15     1       0.1027054000E-03       1    4    1         0.2007861926E-02      0.2078296356E-02
          0                13           1             4   15     1       0.9013423320E-04       1    4    1         0.1032137822E-02      0.1105140114E-02

    ------------------------------------------------
       NWT REQUIRED           13 OUTER ITERATIONS 
       AND A TOTAL OF         20 INNER ITERATIONS.
    ------------------------------------------------

 NO OUTPUT CONTROL FOR STRESS PERIOD    7   TIME STEP    1
 
 SOLVING FOR HEAD 
                                                   Max.-Head-Change                         Max.-Flux-Residual
  Residual-Control   Outer-Iter.   Inner-Iter.     Column Row Layer    Maximum-Head-Change  Column Row Layer    Maximum-Flux-Residual          L2-NORM 
          0                 1           2             1    4     1       0.1119130415E+00       1    4    1         0.2800400110E+01      0.5594928383E+01
          0                 2           2             1    4     1       0.5531207302E-01       1    4    1         0.1387086291E+01      0.2363941499E+01
          0                 3           2             1    4     1       0.2733688958E-01       1    4    1         0.6852576677E+00      0.1042313948E+01
          0                 4           2             1    4     1       0.1351056652E-01       1    4    1         0.3387039637E+00      0.4700038226E+00
          0                 5           2             1    4     1       0.6677216341E-02       1    4    1         0.1673928018E+00      0.2157921572E+00
          0                 6           2             1    4     1       0.3300013792E-02       1    4    1         0.8272942640E-01      0.1005776863E+00
          0                 7           1             1    4     1       0.1630928809E-02       1    4    1         0.4088649247E-01      0.4746955429E-01
          0                 8           1             1    4     1       0.8060342735E-03       1    4    1         0.2020687000E-01      0.2264181687E-01
          0                 9           1             1    4     1       0.3983561021E-03       1    4    1         0.9986595156E-02      0.1090058552E-01
          0                10           1             1    4     1       0.1968743060E-03       1    4    1         0.4935547516E-02      0.5299960064E-02
                                                   Max.-Head-Change                         Max.-Flux-Residual
  Residual-Control   Outer-Iter.   Inner-Iter.     Column Row Layer    Maximum-Head-Change  Column Row Layer    Maximum-Flux-Residual          L2-NORM 
          0                11           1             4   15     1       0.1445240705E-03       1    4    1         0.2439230514E-02      0.2616567001E-02
          0                12           1             4   15     1       0.1253101222E-03       1    4    1         0.1205507915E-02      0.1335582261E-02
          0                13           1             4   15     1       0.1086505623E-03       1    4    1         0.5957815806E-03      0.7358370647E-03
          0                14           1             4   15     1       0.9420582313E-04       1    4    1         0.2944448145E-03      0.4644416037E-03

    ------------------------------------------------
       NWT REQUIRED           14 OUTER ITERATIONS 
       AND A TOTAL OF         20 INNER ITERATIONS.
    ------------------------------------------------

 NO OUTPUT CONTROL FOR STRESS PERIOD    7   TIME STEP    2
 
 SOLVING FOR HEAD 
                                                   Max.-Head-Change                         Max.-Flux-Residual
  Residual-Control   Outer-Iter.   Inner-Iter.     Column Row Layer    Maximum-Head-Change  Column Row Layer    Maximum-Flux-Residual          L2-NORM 
          0                 1           2             1    4     1       0.1159774563E+00       1    4    1         0.2639004467E+01      0.5742288942E+01
          0                 2           2             1    4     1       0.5730599688E-01       1    4    1         0.1306709448E+01      0.2456186673E+01
          0                 3           2             1    4     1       0.2831499542E-01       1    4    1         0.6453915777E+00      0.1105345053E+01
          0                 4           2             1    4     1       0.1399039440E-01       1    4    1         0.3189155701E+00      0.5120064219E+00
          0                 5           2             1    4     1       0.6912624725E-02       1    4    1         0.1575730260E+00      0.2423232071E+00
          0                 6           2             1    4     1       0.3415518407E-02       1    4    1         0.7785680432E-01      0.1166214437E+00
          0                 7           2             1    4     1       0.1687607553E-02       1    4    1         0.3846893406E-01      0.5685237869E-01
          0                 8           1             1    4     1       0.8338497809E-03       1    4    1         0.1900751343E-01      0.2799081102E-01
          0                 9           1             1    6     1       0.4183170008E-03       1    6    1         0.9541652877E-02      0.1388960665E-01
          0                10           1             1    6     1       0.2147473074E-03       1    6    1         0.4898337164E-02      0.6941397511E-02
                                                   Max.-Head-Change                         Max.-Flux-Residual
  Residual-Control   Outer-Iter.   Inner-Iter.     Column Row Layer    Maximum-Head-Change  Column Row Layer    Maximum-Flux-Residual          L2-NORM 
          0                11           1             4   15     1       0.1504148571E-03       1    6    1         0.2514608271E-02      0.3499802718E-02
          0                12           1             4   15     1       0.1287185675E-03       1    6    1         0.1290889064E-02      0.1793686587E-02
          0                13           1             4   15     1       0.1101517725E-03       1    6    1         0.6626812458E-03      0.9537960099E-03
          0                14           1             4   15     1       0.9426309931E-04       1    6    1         0.3401871022E-03      0.5483189645E-03

    ------------------------------------------------
       NWT REQUIRED           14 OUTER ITERATIONS 
       AND A TOTAL OF         21 INNER ITERATIONS.
    ------------------------------------------------

 NO OUTPUT CONTROL FOR STRESS PERIOD    7   TIME STEP    3
 
 SOLVING FOR HEAD 
                                                   Max.-Head-Change                         Max.-Flux-Residual
  Residual-Control   Outer-Iter.   Inner-Iter.     Column Row Layer    Maximum-Head-Change  Column Row Layer    Maximum-Flux-Residual          L2-NORM 
          0                 1           2             1    6     1       0.1488274875E+00       1    6    1         0.3084302278E+01      0.6045576928E+01
          0                 2           2             1    6     1       0.7636746754E-01       1    6    1         0.1584442236E+01      0.2656992464E+01
          0                 3           2             1    6     1       0.3918504525E-01       1    6    1         0.8128462541E+00      0.1230960061E+01
          0                 4           2             1    6     1       0.2010595413E-01       1    6    1         0.4170974327E+00      0.5873961572E+00
          0                 5           2             1    6     1       0.1031629435E-01       1    6    1         0.2140118510E+00      0.2859674192E+00
          0                 6           2             1    6     1       0.5293203955E-02       1    6    1         0.1098087692E+00      0.1411690748E+00
          0                 7           2             1    6     1       0.2715876967E-02       1    6    1         0.5634187557E-01      0.7035628815E-01
          0                 8           1             1    6     1       0.1393473106E-02       1    6    1         0.2890828472E-01      0.3529647069E-01
          0                 9           1             1    6     1       0.7149645059E-03       1    6    1         0.1483236440E-01      0.1779211254E-01
          0                10           1             1    6     1       0.3668326987E-03       1    6    1         0.7610196699E-02      0.9004114922E-02
                                                   Max.-Head-Change                         Max.-Flux-Residual
  Residual-Control   Outer-Iter.   Inner-Iter.     Column Row Layer    Maximum-Head-Change  Column Row Layer    Maximum-Flux-Residual          L2-NORM 
          0                11           1             1    6     1       0.1882129456E-03       1    6    1         0.3904622729E-02      0.4577541451E-02
          0                12           1             4   15     1       0.1302298082E-03       1    6    1         0.2003365531E-02      0.2345786064E-02
          0                13           1             4   15     1       0.1098729019E-03       1    6    1         0.1027872907E-02      0.1223805327E-02
          0                14           1             4   15     1       0.9269805272E-04       1    6    1         0.5273717891E-03      0.6652919529E-03

    ------------------------------------------------
       NWT REQUIRED           14 OUTER ITERATIONS 
       AND A TOTAL OF         21 INNER ITERATIONS.
    ------------------------------------------------

 NO OUTPUT CONTROL FOR STRESS PERIOD    7   TIME STEP    4
 
 SOLVING FOR HEAD 
                                                   Max.-Head-Change                         Max.-Flux-Residual
  Residual-Control   Outer-Iter.   Inner-Iter.     Column Row Layer    Maximum-Head-Change  Column Row Layer    Maximum-Flux-Residual          L2-NORM 
          0                 1           2             6   15     1       0.1689556221E+00       6   15    1         0.3180455001E+01      0.6584308644E+01
          0                 2           2             6   15     1       0.8686315526E-01       6   15    1         0.1635472095E+01      0.2986931605E+01
          0                 3           2             6   15     1       0.4465592072E-01       6   15    1         0.8407983230E+00      0.1415816729E+01
          0                 4           2             6   15     1       0.2295682945E-01       6   15    1         0.4322510822E+00      0.6817703576E+00
          0                 5           2             6   15     1       0.1180154036E-01       6   15    1         0.2222120923E+00      0.3318464779E+00
          0                 6           2             6   15     1       0.6066830818E-02       6   15    1         0.1142336456E+00      0.1631754396E+00
          0                 7           2             6   15     1       0.3118766817E-02       6   15    1         0.5872416726E-01      0.8083289759E-01
          0                 8           2             6   15     1       0.1603255090E-02       6   15    1         0.3018823124E-01      0.4026710161E-01
          0                 9           1             6   15     1       0.8241791223E-03       6   15    1         0.1551876829E-01      0.2014874069E-01
          0                10           1             6   15     1       0.4236822210E-03       6   15    1         0.7977671493E-02      0.1012189298E-01
                                                   Max.-Head-Change                         Max.-Flux-Residual
  Residual-Control   Outer-Iter.   Inner-Iter.     Column Row Layer    Maximum-Head-Change  Column Row Layer    Maximum-Flux-Residual          L2-NORM 
          0                11           1             6   15     1       0.2178004815E-03       6   15    1         0.4101046988E-02      0.5107005911E-02
          0                12           1             4   15     1       0.1312583811E-03       6   15    1         0.2108207489E-02      0.2593870004E-02
          0                13           1             4   15     1       0.1090531202E-03       6   15    1         0.1083757931E-02      0.1335032937E-02
          0                14           1             4   15     1       0.9060380092E-04       6   15    1         0.5571241056E-03      0.7076952913E-03

    ------------------------------------------------
       NWT REQUIRED           14 OUTER ITERATIONS 
       AND A TOTAL OF         22 INNER ITERATIONS.
    ------------------------------------------------

 OUTPUT CONTROL FOR STRESS PERIOD    7   TIME STEP    5
    PRINT BUDGET
    SAVE BUDGET

            WELLS   PERIOD    7   STEP   5
 WELL      1   LAYER   1   ROW     6   COL     4   RATE    -2.00000    
 WELL      2   LAYER   1   ROW     6   COL     5   RATE    -2.00000    
 WELL      3   LAYER   1   ROW     7   COL     4   RATE    -2.00000    
 WELL      4   LAYER   1   ROW     7   COL     5   RATE    -2.00000    
 WELL      5   LAYER   1   ROW     8   COL     4   RATE    -2.00000    
 WELL      6   LAYER   1   ROW     8   COL     5   RATE    -2.00000    
 WELL      7   LAYER   1   ROW     9   COL     4   RATE    -2.00000    
 WELL      8   LAYER   1   ROW     9   COL     5   RATE    -2.00000    
 WELL      9   LAYER   1   ROW    10   COL     4   RATE    -2.00000    
 WELL     10   LAYER   1   ROW    10   COL     5   RATE    -2.00000    

  HEAD DEP BOUNDS   PERIOD    7   STEP     5
 BOUNDARY      1   LAYER   1   ROW    13   COL     1   RATE   -0.284524    
 BOUNDARY      2   LAYER   1   ROW    14   COL     9   RATE    0.205360    



 STREAM LISTING     PERIOD      7   STEP        5

 LAYER ROW COL. STREAM  RCH.  FLOW INTO     FLOW TO   FLOW OUT OF   OVRLND.     DIRECT     STREAM       STREAM     STREAM     STREAM   STREAMBED  STREAMBED
                SEG.NO.  NO.  STRM. RCH.    AQUIFER    STRM. RCH.    RUNOFF     PRECIP       ET          HEAD       DEPTH      WIDTH   CONDCTNC.   GRADIENT

   1    1    1     1     1    2.5000E+01  1.1972E+00   2.3803E+01  0.000E+00  0.000E+00  0.000E+00  1.09422E+03  1.171E+00  1.294E+01  5.824E-01  6.852E-01
   1    2    2     1     2    2.3803E+01  2.6937E+00   2.1109E+01  0.000E+00  0.000E+00  0.000E+00  1.08920E+03  1.141E+00  1.254E+01  8.778E-01  1.023E+00
   1    3    3     1     3    2.1109E+01  2.9220E+00   1.8187E+01  0.000E+00  0.000E+00  0.000E+00  1.08351E+03  1.094E+00  1.189E+01  7.137E-01  1.365E+00
   1    3    4     1     4    1.8187E+01  2.4829E+00   1.5704E+01  0.000E+00  0.000E+00  0.000E+00  1.07846E+03  1.048E+00  1.105E+01  6.133E-01  1.349E+00
   1    4    5     2     1    5.7042E+00  2.6707E+00   3.0334E+00  0.000E+00  0.000E+00  0.000E+00  1.07236E+03  4.240E-01  1.200E+01  7.800E-01  1.141E+00
   1    5    6     2     2    3.0334E+00  1.9617E+00   1.0718E+00  0.000E+00  0.000E+00  0.000E+00  1.06678E+03  2.695E-01  1.200E+01  6.000E-01  1.090E+00
   1    6    6     2     3    1.0718E+00  1.0718E+00   0.0000E+00  0.000E+00  0.000E+00  0.000E+00  1.06183E+03  4.106E-02  1.200E+01  6.000E-01  1.014E+00
   1    7    6     2     4    0.0000E+00  0.0000E+00   0.0000E+00  0.000E+00  0.000E+00  0.000E+00  1.05708E+03  0.000E+00  1.200E+01  6.000E-01  1.000E+00
   1    8    6     2     5    0.0000E+00  0.0000E+00   0.0000E+00  0.000E+00  0.000E+00  0.000E+00  1.05236E+03  0.000E+00  1.200E+01  6.000E-01  1.000E+00
   1    3    5     3     1    1.0000E+01  7.6258E-01   9.2374E+00  0.000E+00  0.000E+00  0.000E+00  1.07555E+03  1.909E+00  9.636E+00  7.227E-01  5.276E-01
   1    3    6     3     2    9.2374E+00  4.6621E-01   8.7712E+00  0.000E+00  0.000E+00  0.000E+00  1.07264E+03  1.727E+00  8.909E+00  6.682E-01  3.489E-01
   1    3    7     3     3    8.7712E+00  4.0956E-01   8.3617E+00  0.000E+00  0.000E+00  0.000E+00  1.06987E+03  1.555E+00  8.218E+00  5.547E-01  3.692E-01
   1    4    8     3     4    8.3617E+00  1.4547E+00   6.9069E+00  0.000E+00  0.000E+00  0.000E+00  1.06682E+03  1.364E+00  7.455E+00  6.709E-01  1.084E+00
   1    5    8     3     5    6.9069E+00  1.5790E+00   5.3280E+00  0.000E+00  0.000E+00  0.000E+00  1.06362E+03  1.164E+00  6.655E+00  4.991E-01  1.582E+00
   1    6    8     3     6    5.3280E+00  5.5980E-01   4.7682E+00  0.000E+00  0.000E+00  0.000E+00  1.06158E+03  1.036E+00  6.145E+00  1.844E-01  1.518E+00
   1    5   10     4     1    1.0000E+01  9.0525E-01   9.0947E+00  0.000E+00  0.000E+00  0.000E+00  1.07835E+03  6.210E-01  1.000E+01  2.500E-01  1.207E+00
   1    5    9     4     2    9.0947E+00  1.7835E+00   7.3113E+00  0.000E+00  0.000E+00  0.000E+00  1.07148E+03  5.670E-01  1.000E+01  5.000E-01  1.189E+00
   1    6    8     4     3    7.3113E+00  1.2257E+00   6.0855E+00  0.000E+00  0.000E+00  0.000E+00  1.06368E+03  5.021E-01  1.000E+01  3.500E-01  1.167E+00
   1    6    8     5     1    1.0854E+01  3.7260E-01   1.0481E+01  0.000E+00  0.000E+00  0.000E+00  1.05869E+03  6.870E-01  1.573E+01  6.290E-01  1.974E-01
   1    7    7     5     2    1.0481E+01  1.4907E+00   8.9905E+00  0.000E+00  0.000E+00  0.000E+00  1.05417E+03  6.654E-01  1.489E+01  7.444E-01  6.675E-01
   1    8    7     5     3    8.9905E+00  1.1281E+00   7.8624E+00  0.000E+00  0.000E+00  0.000E+00  1.04988E+03  6.326E-01  1.365E+01  4.778E-01  7.870E-01
   1    8    6     5     4    7.8624E+00  1.1276E+00   6.7348E+00  0.000E+00  0.000E+00  0.000E+00  1.04685E+03  6.015E-01  1.252E+01  3.131E-01  1.201E+00
   1    9    6     6     1    6.7348E+00  2.0181E+00   4.7167E+00  0.000E+00  0.000E+00  0.000E+00  1.04323E+03  5.043E-01  1.200E+01  6.000E-01  1.121E+00
   1   10    7     6     2    4.7167E+00  1.3196E+00   3.3971E+00  0.000E+00  0.000E+00  0.000E+00  1.03859E+03  4.101E-01  1.200E+01  6.000E-01  7.331E-01
   1   11    7     6     3    3.3971E+00  1.0328E+00   2.3643E+00  0.000E+00  0.000E+00  0.000E+00  1.03397E+03  3.339E-01  1.200E+01  6.000E-01  5.738E-01
   1   12    7     6     4    2.3643E+00  5.4185E-01   1.8225E+00  0.000E+00  0.000E+00  0.000E+00  1.02937E+03  2.757E-01  1.200E+01  6.000E-01  3.010E-01
   1   13    7     6     5    1.8225E+00 -7.8617E-01   2.6087E+00  0.000E+00  0.000E+00  0.000E+00  1.02619E+03  2.853E-01  1.200E+01  2.400E-01 -1.092E+00
   1   14    9     7     1    1.5000E+02  1.5219E+00   1.4848E+02  0.000E+00  0.000E+00  0.000E+00  1.03987E+03  2.287E+00  5.529E+01  5.593E+00  9.071E-02
   1   13    8     7     2    1.4848E+02  1.6037E+00   1.4687E+02  0.000E+00  0.000E+00  0.000E+00  1.03478E+03  2.279E+00  5.526E+01  6.148E+00  8.696E-02
   1   13    7     7     3    1.4687E+02  1.2321E+00   1.4564E+02  0.000E+00  0.000E+00  0.000E+00  1.02969E+03  2.271E+00  5.522E+01  5.585E+00  7.354E-02
   1   13    6     8     1    1.4825E+02  1.1175E-01   1.4814E+02  0.000E+00  0.000E+00  0.000E+00  1.02468E+03  2.804E+00  4.066E+01  4.143E+00  8.991E-03
   1   13    5     8     2    1.4814E+02 -6.1083E-01   1.4875E+02  0.000E+00  0.000E+00  0.000E+00  1.01843E+03  2.806E+00  4.068E+01  4.146E+00 -4.911E-02
   1   13    4     8     3    1.4875E+02 -1.4520E+00   1.5020E+02  0.000E+00  0.000E+00  0.000E+00  1.01219E+03  2.813E+00  4.079E+01  4.157E+00 -1.164E-01
   1   13    3     8     4    1.5020E+02 -2.1230E+00   1.5233E+02  0.000E+00  0.000E+00  0.000E+00  1.00595E+03  2.826E+00  4.097E+01  4.175E+00 -1.695E-01
   1   13    2     8     5    1.5233E+02 -2.0176E+00   1.5434E+02  0.000E+00  0.000E+00  0.000E+00  9.99715E+02  2.840E+00  4.118E+01  4.197E+00 -1.603E-01
   1   13    1     8     6    1.5434E+02 -1.9195E+00   1.5626E+02  0.000E+00  0.000E+00  0.000E+00  9.94729E+02  2.854E+00  4.138E+01  2.530E+00 -2.529E-01



 UBDSV3 SAVING "           GW ET" ON UNIT  61 AT TIME STEP  5, STRESS PERIOD   7
 UBDSV3 SAVING "    UZF RECHARGE" ON UNIT  61 AT TIME STEP  5, STRESS PERIOD   7
 UBDSV3 SAVING " SURFACE LEAKAGE" ON UNIT  61 AT TIME STEP  5, STRESS PERIOD   7
 UBDSV3 SAVING "       HORT+DUNN" ON UNIT  61 AT TIME STEP  5, STRESS PERIOD   7
 UBDSV3 SAVING "  STORAGE CHANGE" ON UNIT  61 AT TIME STEP  5, STRESS PERIOD   7


UNSATURATED ZONE PACKAGE VOLUMETRIC BUDGET FOR  TIME STEP     5 STRESS PERIOD    7
  ------------------------------------------------------------------------------



     CUMULATIVE VOLUMES      L**3       RATES FOR THIS TIME STEP      L**3/T
     ------------------                 ------------------------

           IN:                                      IN:
           ---                                      ---
        INFILTRATION =  1215543007.0791          INFILTRATION =          25.4250

          OUT:                                     OUT:
          ----                                     ----
              UZF ET =        8040.5740                UZF ET =       0.0000E+00
        UZF RECHARGE =   412868223.0085          UZF RECHARGE =          69.7726

            IN - OUT =   802666743.4966              IN - OUT =         -44.3476

          STORAGE:                                 STORAGE:
          --------                                 --------
      STORAGE CHANGE =   802351561.0034        STORAGE CHANGE =         -44.3476

 PERCENT DISCREPANCY IS DIFFERENCE BETWEEN IN-OUT MINUS CHANGE IN STORAGE
 DIVIDED BY THE AVERAGE OF IN AND OUT TIMES 100

 PERCENT DISCREPANCY =           0.01     PERCENT DISCREPANCY =           0.00






1
  VOLUMETRIC BUDGET FOR ENTIRE MODEL AT END OF TIME STEP    5, STRESS PERIOD   7
  ------------------------------------------------------------------------------

     CUMULATIVE VOLUMES      L**3       RATES FOR THIS TIME STEP      L**3/T
     ------------------                 ------------------------

           IN:                                      IN:
           ---                                      ---
             STORAGE     =    50708440.0000               STORAGE     =           1.9545
       CONSTANT HEAD     =           0.0000         CONSTANT HEAD     =           0.0000
               WELLS     =           0.0000                 WELLS     =           0.0000
     HEAD DEP BOUNDS     =     3373667.2500       HEAD DEP BOUNDS     =           0.2054
      STREAM LEAKAGE     =   650456064.0000        STREAM LEAKAGE     =          37.6469
        UZF RECHARGE     =   412868256.0000          UZF RECHARGE     =          69.7726
               GW ET     =           0.0000                 GW ET     =           0.0000
     SURFACE LEAKAGE     =           0.0000       SURFACE LEAKAGE     =           0.0000

                TOTAL IN =  1117406464.0000                  TOTAL IN =         109.5794

          OUT:                                     OUT:
          ----                                     ----
             STORAGE     =   351513344.0000               STORAGE     =          56.1410
       CONSTANT HEAD     =           0.0000         CONSTANT HEAD     =           0.0000
               WELLS     =   246619408.0000                 WELLS     =          20.0000
     HEAD DEP BOUNDS     =     4603661.5000       HEAD DEP BOUNDS     =           0.2845
      STREAM LEAKAGE     =   132213856.0000        STREAM LEAKAGE     =           8.9092
        UZF RECHARGE     =           0.0000          UZF RECHARGE     =           0.0000
               GW ET     =   382446368.0000                 GW ET     =          24.2438
     SURFACE LEAKAGE     =           0.0000       SURFACE LEAKAGE     =           0.0000

               TOTAL OUT =  1117396608.0000                 TOTAL OUT =         109.5785

                IN - OUT =        9856.0000                  IN - OUT =       9.3079E-04

     PERCENT DISCREPANCY =           0.00         PERCENT DISCREPANCY =           0.00






         TIME SUMMARY AT END OF TIME STEP    5 IN STRESS PERIOD    7
                    SECONDS     MINUTES      HOURS       DAYS        YEARS
                    -----------------------------------------------------------
   TIME STEP LENGTH 1.21100E+05  2018.3      33.639      1.4016     3.83743E-03
 STRESS PERIOD TIME 5.04972E+05  8416.2      140.27      5.8446     1.60016E-02
         TOTAL TIME 1.62730E+07 2.71216E+05  4520.3      188.34     0.51566    
1
 
 SOLVING FOR HEAD 
                                                   Max.-Head-Change                         Max.-Flux-Residual
  Residual-Control   Outer-Iter.   Inner-Iter.     Column Row Layer    Maximum-Head-Change  Column Row Layer    Maximum-Flux-Residual          L2-NORM 
          0                 1           2             1    5     1       0.1858510534E+00       1    5    1         0.3180322646E+01      0.7190499607E+01
          0                 2           2             1    5     1       0.9547514095E-01       1    5    1         0.1635485965E+01      0.3273481273E+01
          0                 3           2             1    5     1       0.4903862663E-01       1    5    1         0.8400161061E+00      0.1545499676E+01
          0                 4           2             1    5     1       0.2518362564E-01       1    5    1         0.4314581637E+00      0.7440436093E+00
          0                 5           2             1    5     1       0.1293114076E-01       1    5    1         0.2215673127E+00      0.3628060836E+00
          0                 6           2             1    5     1       0.6638951951E-02       1    5    1         0.1137667403E+00      0.1785117779E+00
          0                 7           2             1    5     1       0.3408089932E-02       1    5    1         0.5840756537E-01      0.8840421545E-01
          0                 8           2             1    5     1       0.1749345467E-02       1    5    1         0.2998282284E-01      0.4399133406E-01
          0                 9           1             1    5     1       0.8978357063E-03       1    5    1         0.1538967855E-01      0.2197285643E-01
          0                10           1             1    5     1       0.4607637168E-03       1    5    1         0.7898487023E-02      0.1101035393E-01
                                                   Max.-Head-Change                         Max.-Flux-Residual
  Residual-Control   Outer-Iter.   Inner-Iter.     Column Row Layer    Maximum-Head-Change  Column Row Layer    Maximum-Flux-Residual          L2-NORM 
          0                11           1             1    5     1       0.2364410149E-03       1    5    1         0.4053394781E-02      0.5535829154E-02
          0                12           1             4   15     1       0.1307564885E-03       1    5    1         0.2079972156E-02      0.2796891485E-02
          0                13           1             4   15     1       0.1068466469E-03       1    5    1         0.1067240914E-02      0.1426349754E-02
          0                14           1             4   15     1       0.8730843461E-04       1    5    1         0.5475656471E-03      0.7425086544E-03

    ------------------------------------------------
       NWT REQUIRED           14 OUTER ITERATIONS 
       AND A TOTAL OF         22 INNER ITERATIONS.
    ------------------------------------------------

 NO OUTPUT CONTROL FOR STRESS PERIOD    7   TIME STEP    6
 
 SOLVING FOR HEAD 
                                                   Max.-Head-Change                         Max.-Flux-Residual
  Residual-Control   Outer-Iter.   Inner-Iter.     Column Row Layer    Maximum-Head-Change  Column Row Layer    Maximum-Flux-Residual          L2-NORM 
          0                 1           2             1    5     1       0.1806079299E+00       1    5    1         0.2805608970E+01      0.6757616027E+01
          0                 2           2             1    5     1       0.8923494155E-01       1    5    1         0.1389987559E+01      0.3026628953E+01
          0                 3           2             1    5     1       0.4408412537E-01       1    5    1         0.6863926461E+00      0.1406215315E+01
          0                 4           2             1    5     1       0.2177641139E-01       1    5    1         0.3391244894E+00      0.6659720072E+00
          0                 5           2             1    5     1       0.1075602329E-01       1    5    1         0.1675125648E+00      0.3192063237E+00
          0                 6           2             1    5     1       0.5312291342E-02       1    5    1         0.8273868445E-01      0.1542608619E+00
          0                 7           2             1    5     1       0.2623490992E-02       1    5    1         0.4086322891E-01      0.7496965097E-01
          0                 8           2             1    5     1       0.1295529324E-02       1    5    1         0.2018018466E-01      0.3657949575E-01
          0                 9           1             1    5     1       0.6397157615E-03       1    5    1         0.9965241753E-02      0.1790067375E-01
          0                10           1             1    5     1       0.3158645708E-03       1    5    1         0.4920656290E-02      0.8782259201E-02
                                                   Max.-Head-Change                         Max.-Flux-Residual
  Residual-Control   Outer-Iter.   Inner-Iter.     Column Row Layer    Maximum-Head-Change  Column Row Layer    Maximum-Flux-Residual          L2-NORM 
          0                11           1             4   15     1       0.1602827062E-03       1    5    1         0.2429587746E-02      0.4321771238E-02
          0                12           1             4   15     1       0.1286504085E-03       1    5    1         0.1199549650E-02      0.2138185857E-02
          0                13           1             4   15     1       0.1032597291E-03       1    5    1         0.5922178566E-03      0.1070560945E-02
          0                14           1             4   15     1       0.8287965509E-04       1    5    1         0.2923639362E-03      0.5511102462E-03

    ------------------------------------------------
       NWT REQUIRED           14 OUTER ITERATIONS 
       AND A TOTAL OF         22 INNER ITERATIONS.
    ------------------------------------------------

 NO OUTPUT CONTROL FOR STRESS PERIOD    7   TIME STEP    7
 
 SOLVING FOR HEAD 
                                                   Max.-Head-Change                         Max.-Flux-Residual
  Residual-Control   Outer-Iter.   Inner-Iter.     Column Row Layer    Maximum-Head-Change  Column Row Layer    Maximum-Flux-Residual          L2-NORM 
          0                 1           2             1    5     1       0.1970479700E+00       1    5    1         0.2783952378E+01      0.7058247109E+01
          0                 2           2             1    5     1       0.9730965970E-01       1    5    1         0.1378520582E+01      0.3169272276E+01
          0                 3           2             1    5     1       0.4804537397E-01       1    5    1         0.6804009716E+00      0.1475422290E+01
          0                 4           2             1    5     1       0.2371753852E-01       1    5    1         0.3359632130E+00      0.6994058614E+00
          0                 5           2             6   15     1       0.1172635993E-01       1    5    1         0.1658398022E+00      0.3351528922E+00
          0                 6           2             6   15     1       0.5799837658E-02       6   15    1         0.8202146634E-01      0.1617571856E+00
          0                 7           2             6   15     1       0.2868577387E-02       6   15    1         0.4056762971E-01      0.7844907521E-01
          0                 8           2             6   15     1       0.1418783164E-02       6   15    1         0.2006458570E-01      0.3817840179E-01
          0                 9           1             6   15     1       0.7017213122E-03       6   15    1         0.9923833799E-02      0.1863058456E-01
          0                10           1             6   15     1       0.3470666831E-03       6   15    1         0.4908265187E-02      0.9114902518E-02
                                                   Max.-Head-Change                         Max.-Flux-Residual
  Residual-Control   Outer-Iter.   Inner-Iter.     Column Row Layer    Maximum-Head-Change  Column Row Layer    Maximum-Flux-Residual          L2-NORM 
          0                11           1             4   15     1       0.2244147438E-03       6   15    1         0.2427594998E-02      0.4474437509E-02
          0                12           1             4   15     1       0.1768112812E-03       6   15    1         0.1200672757E-02      0.2209936539E-02
          0                13           1             4   15     1       0.1392625610E-03       6   15    1         0.5938462747E-03      0.1106085553E-02
          0                14           1             4   15     1       0.1096666801E-03       6   15    1         0.2937145595E-03      0.5702106914E-03
          0                15           1             4   15     1       0.8634999058E-04       4   15    1         0.1509496649E-03      0.3119744460E-03

    ------------------------------------------------
       NWT REQUIRED           15 OUTER ITERATIONS 
       AND A TOTAL OF         23 INNER ITERATIONS.
    ------------------------------------------------

 NO OUTPUT CONTROL FOR STRESS PERIOD    7   TIME STEP    8
 
 SOLVING FOR HEAD 
                                                   Max.-Head-Change                         Max.-Flux-Residual
  Residual-Control   Outer-Iter.   Inner-Iter.     Column Row Layer    Maximum-Head-Change  Column Row Layer    Maximum-Flux-Residual          L2-NORM 
          0                 1           2             5   15     1       0.2199232087E+00       5   15    1         0.2828270215E+01      0.7305709363E+01
          0                 2           2             5   15     1       0.1085583570E+00       5   15    1         0.1398305222E+01      0.3306696977E+01
          0                 3           2             5   15     1       0.5357859151E-01       5   15    1         0.6900198530E+00      0.1540950795E+01
          0                 4           2             5   15     1       0.2644061689E-01       5   15    1         0.3405704879E+00      0.7299270571E+00
          0                 5           2             5   15     1       0.1304708860E-01       5   15    1         0.1680644630E+00      0.3491141186E+00
          0                 6           2             5   15     1       0.6437599427E-02       5   15    1         0.8293032641E-01      0.1680665285E+00
          0                 7           2             5   15     1       0.3176202097E-02       5   15    1         0.4091840133E-01      0.8127790691E-01
          0                 8           2             5   15     1       0.1567010001E-02       5   15    1         0.2018825488E-01      0.3944024440E-01
          0                 9           1             5   15     1       0.7730748843E-03       5   15    1         0.9959996521E-02      0.1919148685E-01
          0                10           1             5   15     1       0.3813874729E-03       5   15    1         0.4913680154E-02      0.9363450988E-02
                                                   Max.-Head-Change                         Max.-Flux-Residual
  Residual-Control   Outer-Iter.   Inner-Iter.     Column Row Layer    Maximum-Head-Change  Column Row Layer    Maximum-Flux-Residual          L2-NORM 
          0                11           1             4   15     1       0.2574426124E-03       5   15    1         0.2424103696E-02      0.4583926230E-02
          0                12           1             4   15     1       0.1987019174E-03       5   15    1         0.1195929319E-02      0.2257197659E-02
          0                13           1             4   15     1       0.1533031739E-03       5   15    1         0.5900513233E-03      0.1124885617E-02
          0                14           1             4   15     1       0.1182469976E-03       5   15    1         0.2911617652E-03      0.5751853014E-03
          0                15           1             4   15     1       0.9119242901E-04       4   15    1         0.1476171080E-03      0.3094977634E-03

    ------------------------------------------------
       NWT REQUIRED           15 OUTER ITERATIONS 
       AND A TOTAL OF         23 INNER ITERATIONS.
    ------------------------------------------------

 NO OUTPUT CONTROL FOR STRESS PERIOD    7   TIME STEP    9
 
 SOLVING FOR HEAD 
                                                   Max.-Head-Change                         Max.-Flux-Residual
  Residual-Control   Outer-Iter.   Inner-Iter.     Column Row Layer    Maximum-Head-Change  Column Row Layer    Maximum-Flux-Residual          L2-NORM 
          0                 1           2             5   15     1       0.2394151938E+00       5   15    1         0.2799984938E+01      0.6966329473E+01
          0                 2           2             5   15     1       0.1181086490E+00       5   15    1         0.1383749939E+01      0.3095319894E+01
          0                 3           2             5   15     1       0.5825596523E-01       5   15    1         0.6824006522E+00      0.1429981314E+01
          0                 4           2             5   15     1       0.2873076580E-01       5   15    1         0.3366029486E+00      0.6728228381E+00
          0                 5           2             5   15     1       0.1416815032E-01       5   15    1         0.1660016104E+00      0.3198226879E+00
          0                 6           2             5   15     1       0.6986279166E-02       5   15    1         0.8186034115E-01      0.1530426617E+00
          0                 7           2             5   15     1       0.3444705210E-02       5   15    1         0.4036463996E-01      0.7357119721E-01
          0                 8           2             5   15     1       0.1698393204E-02       5   15    1         0.1990229352E-01      0.3548932676E-01
          0                 9           1             5   15     1       0.8373605748E-03       5   15    1         0.9812647949E-02      0.1716891090E-01
          0                10           1             5   15     1       0.4128435542E-03       5   15    1         0.4837920805E-02      0.8330336010E-02
                                                   Max.-Head-Change                         Max.-Flux-Residual
  Residual-Control   Outer-Iter.   Inner-Iter.     Column Row Layer    Maximum-Head-Change  Column Row Layer    Maximum-Flux-Residual          L2-NORM 
          0                11           1             4   15     1       0.2816176292E-03       5   15    1         0.2385238860E-02      0.4057686255E-02
          0                12           1             4   15     1       0.2126059134E-03       5   15    1         0.1176038087E-02      0.1989828144E-02
          0                13           1             4   15     1       0.1604297050E-03       5   15    1         0.5798964290E-03      0.9889640503E-03
          0                14           1             4   15     1       0.1210207616E-03       5   15    1         0.2859917746E-03      0.5052000777E-03
          0                15           1             4   15     1       0.9127405025E-04       5   15    1         0.1410855626E-03      0.2717484234E-03

    ------------------------------------------------
       NWT REQUIRED           15 OUTER ITERATIONS 
       AND A TOTAL OF         23 INNER ITERATIONS.
    ------------------------------------------------

 OUTPUT CONTROL FOR STRESS PERIOD    7   TIME STEP   10
    PRINT BUDGET
    SAVE BUDGET

            WELLS   PERIOD    7   STEP  10
 WELL      1   LAYER   1   ROW     6   COL     4   RATE    -2.00000    
 WELL      2   LAYER   1   ROW     6   COL     5   RATE    -2.00000    
 WELL      3   LAYER   1   ROW     7   COL     4   RATE    -2.00000    
 WELL      4   LAYER   1   ROW     7   COL     5   RATE    -2.00000    
 WELL      5   LAYER   1   ROW     8   COL     4   RATE    -2.00000    
 WELL      6   LAYER   1   ROW     8   COL     5   RATE    -2.00000    
 WELL      7   LAYER   1   ROW     9   COL     4   RATE    -2.00000    
 WELL      8   LAYER   1   ROW     9   COL     5   RATE    -2.00000    
 WELL      9   LAYER   1   ROW    10   COL     4   RATE    -2.00000    
 WELL     10   LAYER   1   ROW    10   COL     5   RATE    -2.00000    

  HEAD DEP BOUNDS   PERIOD    7   STEP    10
 BOUNDARY      1   LAYER   1   ROW    13   COL     1   RATE   -0.284898    
 BOUNDARY      2   LAYER   1   ROW    14   COL     9   RATE    0.205593    



 STREAM LISTING     PERIOD      7   STEP       10

 LAYER ROW COL. STREAM  RCH.  FLOW INTO     FLOW TO   FLOW OUT OF   OVRLND.     DIRECT     STREAM       STREAM     STREAM     STREAM   STREAMBED  STREAMBED
                SEG.NO.  NO.  STRM. RCH.    AQUIFER    STRM. RCH.    RUNOFF     PRECIP       ET          HEAD       DEPTH      WIDTH   CONDCTNC.   GRADIENT

   1    1    1     1     1    2.5000E+01  1.1946E+00   2.3805E+01  0.000E+00  0.000E+00  0.000E+00  1.09422E+03  1.171E+00  1.294E+01  5.824E-01  6.837E-01
   1    2    2     1     2    2.3805E+01  2.6769E+00   2.1128E+01  0.000E+00  0.000E+00  0.000E+00  1.08920E+03  1.141E+00  1.254E+01  8.780E-01  1.016E+00
   1    3    3     1     3    2.1128E+01  2.9236E+00   1.8205E+01  0.000E+00  0.000E+00  0.000E+00  1.08351E+03  1.095E+00  1.190E+01  7.140E-01  1.365E+00
   1    3    4     1     4    1.8205E+01  2.4843E+00   1.5721E+01  0.000E+00  0.000E+00  0.000E+00  1.07846E+03  1.049E+00  1.106E+01  6.136E-01  1.350E+00
   1    4    5     2     1    5.7205E+00  2.6714E+00   3.0491E+00  0.000E+00  0.000E+00  0.000E+00  1.07236E+03  4.249E-01  1.200E+01  7.800E-01  1.142E+00
   1    5    6     2     2    3.0491E+00  1.9624E+00   1.0867E+00  0.000E+00  0.000E+00  0.000E+00  1.06678E+03  2.707E-01  1.200E+01  6.000E-01  1.090E+00
   1    6    6     2     3    1.0867E+00  1.0867E+00   0.0000E+00  0.000E+00  0.000E+00  0.000E+00  1.06183E+03  4.140E-02  1.200E+01  6.000E-01  1.014E+00
   1    7    6     2     4    0.0000E+00  0.0000E+00   0.0000E+00  0.000E+00  0.000E+00  0.000E+00  1.05708E+03  0.000E+00  1.200E+01  6.000E-01  1.000E+00
   1    8    6     2     5    0.0000E+00  0.0000E+00   0.0000E+00  0.000E+00  0.000E+00  0.000E+00  1.05236E+03  0.000E+00  1.200E+01  6.000E-01  1.000E+00
   1    3    5     3     1    1.0000E+01  9.9781E-01   9.0022E+00  0.000E+00  0.000E+00  0.000E+00  1.07555E+03  1.909E+00  9.636E+00  7.227E-01  6.903E-01
   1    3    6     3     2    9.0022E+00  6.1792E-01   8.3843E+00  0.000E+00  0.000E+00  0.000E+00  1.07264E+03  1.727E+00  8.909E+00  6.682E-01  4.624E-01
   1    3    7     3     3    8.3843E+00  4.1612E-01   7.9682E+00  0.000E+00  0.000E+00  0.000E+00  1.06987E+03  1.555E+00  8.218E+00  5.547E-01  3.751E-01
   1    4    8     3     4    7.9682E+00  1.4640E+00   6.5042E+00  0.000E+00  0.000E+00  0.000E+00  1.06682E+03  1.364E+00  7.455E+00  6.709E-01  1.091E+00
   1    5    8     3     5    6.5042E+00  1.5629E+00   4.9413E+00  0.000E+00  0.000E+00  0.000E+00  1.06362E+03  1.164E+00  6.655E+00  4.991E-01  1.566E+00
   1    6    8     3     6    4.9413E+00  5.5980E-01   4.3815E+00  0.000E+00  0.000E+00  0.000E+00  1.06158E+03  1.036E+00  6.145E+00  1.844E-01  1.518E+00
   1    5   10     4     1    1.0000E+01  9.0525E-01   9.0947E+00  0.000E+00  0.000E+00  0.000E+00  1.07835E+03  6.210E-01  1.000E+01  2.500E-01  1.207E+00
   1    5    9     4     2    9.0947E+00  1.7835E+00   7.3113E+00  0.000E+00  0.000E+00  0.000E+00  1.07148E+03  5.670E-01  1.000E+01  5.000E-01  1.189E+00
   1    6    8     4     3    7.3113E+00  1.2257E+00   6.0855E+00  0.000E+00  0.000E+00  0.000E+00  1.06368E+03  5.021E-01  1.000E+01  3.500E-01  1.167E+00
   1    6    8     5     1    1.0467E+01  3.3963E-01   1.0127E+01  0.000E+00  0.000E+00  0.000E+00  1.05868E+03  6.785E-01  1.540E+01  6.159E-01  1.838E-01
   1    7    7     5     2    1.0127E+01  1.4447E+00   8.6827E+00  0.000E+00  0.000E+00  0.000E+00  1.05416E+03  6.574E-01  1.458E+01  7.291E-01  6.605E-01
   1    8    7     5     3    8.6827E+00  1.0902E+00   7.5925E+00  0.000E+00  0.000E+00  0.000E+00  1.04987E+03  6.249E-01  1.337E+01  4.679E-01  7.767E-01
   1    8    6     5     4    7.5925E+00  1.1013E+00   6.4911E+00  0.000E+00  0.000E+00  0.000E+00  1.04684E+03  5.940E-01  1.226E+01  3.064E-01  1.198E+00
   1    9    6     6     1    6.4911E+00  1.9962E+00   4.4949E+00  0.000E+00  0.000E+00  0.000E+00  1.04322E+03  4.919E-01  1.200E+01  6.000E-01  1.109E+00
   1   10    7     6     2    4.4949E+00  1.3015E+00   3.1935E+00  0.000E+00  0.000E+00  0.000E+00  1.03858E+03  3.971E-01  1.200E+01  6.000E-01  7.230E-01
   1   11    7     6     3    3.1935E+00  9.9951E-01   2.1939E+00  0.000E+00  0.000E+00  0.000E+00  1.03396E+03  3.208E-01  1.200E+01  6.000E-01  5.553E-01
   1   12    7     6     4    2.1939E+00  5.1247E-01   1.6815E+00  0.000E+00  0.000E+00  0.000E+00  1.02935E+03  2.632E-01  1.200E+01  6.000E-01  2.847E-01
   1   13    7     6     5    1.6815E+00 -7.9162E-01   2.4731E+00  0.000E+00  0.000E+00  0.000E+00  1.02618E+03  2.745E-01  1.200E+01  2.400E-01 -1.099E+00
   1   14    9     7     1    1.5000E+02  1.5556E+00   1.4844E+02  0.000E+00  0.000E+00  0.000E+00  1.03987E+03  2.287E+00  5.529E+01  5.593E+00  9.271E-02
   1   13    8     7     2    1.4844E+02  1.6146E+00   1.4683E+02  0.000E+00  0.000E+00  0.000E+00  1.03478E+03  2.279E+00  5.525E+01  6.147E+00  8.755E-02
   1   13    7     7     3    1.4683E+02  1.1654E+00   1.4566E+02  0.000E+00  0.000E+00  0.000E+00  1.02969E+03  2.271E+00  5.522E+01  5.585E+00  6.955E-02
   1   13    6     8     1    1.4814E+02  4.0486E-02   1.4810E+02  0.000E+00  0.000E+00  0.000E+00  1.02468E+03  2.804E+00  4.065E+01  4.142E+00  3.258E-03
   1   13    5     8     2    1.4810E+02 -6.0174E-01   1.4870E+02  0.000E+00  0.000E+00  0.000E+00  1.01843E+03  2.806E+00  4.068E+01  4.145E+00 -4.839E-02
   1   13    4     8     3    1.4870E+02 -1.4502E+00   1.5015E+02  0.000E+00  0.000E+00  0.000E+00  1.01219E+03  2.813E+00  4.079E+01  4.156E+00 -1.163E-01
   1   13    3     8     4    1.5015E+02 -2.1333E+00   1.5228E+02  0.000E+00  0.000E+00  0.000E+00  1.00595E+03  2.825E+00  4.097E+01  4.175E+00 -1.703E-01
   1   13    2     8     5    1.5228E+02 -2.0013E+00   1.5428E+02  0.000E+00  0.000E+00  0.000E+00  9.99715E+02  2.840E+00  4.118E+01  4.196E+00 -1.590E-01
   1   13    1     8     6    1.5428E+02 -1.9450E+00   1.5623E+02  0.000E+00  0.000E+00  0.000E+00  9.94728E+02  2.853E+00  4.138E+01  2.530E+00 -2.563E-01



 UBDSV3 SAVING "           GW ET" ON UNIT  61 AT TIME STEP 10, STRESS PERIOD   7
 UBDSV3 SAVING "    UZF RECHARGE" ON UNIT  61 AT TIME STEP 10, STRESS PERIOD   7
 UBDSV3 SAVING " SURFACE LEAKAGE" ON UNIT  61 AT TIME STEP 10, STRESS PERIOD   7
 UBDSV3 SAVING "       HORT+DUNN" ON UNIT  61 AT TIME STEP 10, STRESS PERIOD   7
 UBDSV3 SAVING "  STORAGE CHANGE" ON UNIT  61 AT TIME STEP 10, STRESS PERIOD   7


UNSATURATED ZONE PACKAGE VOLUMETRIC BUDGET FOR  TIME STEP    10 STRESS PERIOD    7
  ------------------------------------------------------------------------------



     CUMULATIVE VOLUMES      L**3       RATES FOR THIS TIME STEP      L**3/T
     ------------------                 ------------------------

           IN:                                      IN:
           ---                                      ---
        INFILTRATION =  1236220188.6221          INFILTRATION =          25.4250

          OUT:                                     OUT:
          ----                                     ----
              UZF ET =        8040.5740                UZF ET =       0.0000E+00
        UZF RECHARGE =   471818837.8179          UZF RECHARGE =          69.5693

            IN - OUT =   764393310.2302              IN - OUT =         -44.1443

          STORAGE:                                 STORAGE:
          --------                                 --------
      STORAGE CHANGE =   764145855.9541        STORAGE CHANGE =         -44.0258

 PERCENT DISCREPANCY IS DIFFERENCE BETWEEN IN-OUT MINUS CHANGE IN STORAGE
 DIVIDED BY THE AVERAGE OF IN AND OUT TIMES 100

 PERCENT DISCREPANCY =           0.01     PERCENT DISCREPANCY =          -0.17






1
  VOLUMETRIC BUDGET FOR ENTIRE MODEL AT END OF TIME STEP   10, STRESS PERIOD   7
  ------------------------------------------------------------------------------

     CUMULATIVE VOLUMES      L**3       RATES FOR THIS TIME STEP      L**3/T
     ------------------                 ------------------------

           IN:                                      IN:
           ---                                      ---
             STORAGE     =    53765152.0000               STORAGE     =           4.9889
       CONSTANT HEAD     =           0.0000         CONSTANT HEAD     =           0.0000
               WELLS     =           0.0000                 WELLS     =           0.0000
     HEAD DEP BOUNDS     =     3540782.5000       HEAD DEP BOUNDS     =           0.2056
      STREAM LEAKAGE     =   681055168.0000        STREAM LEAKAGE     =          37.6945
        UZF RECHARGE     =   471818880.0000          UZF RECHARGE     =          69.5693
               GW ET     =           0.0000                 GW ET     =           0.0000
     SURFACE LEAKAGE     =           0.0000       SURFACE LEAKAGE     =           0.0000

                TOTAL IN =  1210179968.0000                  TOTAL IN =         112.4582

          OUT:                                     OUT:
          ----                                     ----
             STORAGE     =   400764352.0000               STORAGE     =          58.9680
       CONSTANT HEAD     =           0.0000         CONSTANT HEAD     =           0.0000
               WELLS     =   262884640.0000                 WELLS     =          20.0000
     HEAD DEP BOUNDS     =     4835250.5000       HEAD DEP BOUNDS     =           0.2849
      STREAM LEAKAGE     =   139496768.0000        STREAM LEAKAGE     =           8.9232
        UZF RECHARGE     =           0.0000          UZF RECHARGE     =           0.0000
               GW ET     =   402188704.0000                 GW ET     =          24.2817
     SURFACE LEAKAGE     =           0.0000       SURFACE LEAKAGE     =           0.0000

               TOTAL OUT =  1210169728.0000                 TOTAL OUT =         112.4578

                IN - OUT =       10240.0000                  IN - OUT =       4.6539E-04

     PERCENT DISCREPANCY =           0.00         PERCENT DISCREPANCY =           0.00






         TIME SUMMARY AT END OF TIME STEP   10 IN STRESS PERIOD    7
                    SECONDS     MINUTES      HOURS       DAYS        YEARS
                    -----------------------------------------------------------
   TIME STEP LENGTH 1.95033E+05  3250.6      54.176      2.2573     6.18023E-03
 STRESS PERIOD TIME 1.31823E+06  21971.      366.18      15.257     4.17723E-02
         TOTAL TIME 1.70862E+07 2.84770E+05  4746.2      197.76     0.54143    
1
 
 SOLVING FOR HEAD 
                                                   Max.-Head-Change                         Max.-Flux-Residual
  Residual-Control   Outer-Iter.   Inner-Iter.     Column Row Layer    Maximum-Head-Change  Column Row Layer    Maximum-Flux-Residual          L2-NORM 
          0                 1           2             1    7     1       0.2294486363E+00       1    7    1         0.2436224910E+01      0.6607914114E+01
          0                 2           2             1    7     1       0.1078394437E+00       1    7    1         0.1148372216E+01      0.2847609503E+01
          0                 3           2             1    7     1       0.5067825075E-01       1    7    1         0.5393988023E+00      0.1275512985E+01
          0                 4           2             1    7     1       0.2381202868E-01       1    7    1         0.2535145060E+00      0.5789381154E+00
          0                 5           2             1    7     1       0.1118675187E-01       1    7    1         0.1191115225E+00      0.2652373411E+00
          0                 6           2             1    7     1       0.5254732056E-02       1    7    1         0.5595678902E-01      0.1222825126E+00
          0                 7           2             4   15     1       0.2675468690E-02       1    7    1         0.2628382061E-01      0.5664999782E-01
          0                 8           2             4   15     1       0.1973413916E-02       1    7    1         0.1234438713E-01      0.2637396864E-01
          0                 9           2             4   15     1       0.1454460458E-02       1    7    1         0.5796947768E-02      0.1236694000E-01
          0                10           1             4   15     1       0.1071462461E-02       1    7    1         0.2721961789E-02      0.5878768136E-02
                                                   Max.-Head-Change                         Max.-Flux-Residual
  Residual-Control   Outer-Iter.   Inner-Iter.     Column Row Layer    Maximum-Head-Change  Column Row Layer    Maximum-Flux-Residual          L2-NORM 
          0                11           1             4   15     1       0.7890783137E-03       1    7    1         0.1277970501E-02      0.2875171441E-02
          0                12           1             4   15     1       0.5810044583E-03       4   15    1         0.8097322320E-03      0.1486001249E-02
          0                13           1             4   15     1       0.4277455268E-03       4   15    1         0.5961992681E-03      0.8380120902E-03
          0                14           1             4   15     1       0.3148890027E-03       4   15    1         0.4389261945E-03      0.5222508673E-03
          0                15           1             4   15     1       0.2317970141E-03       4   15    1         0.3231169381E-03      0.3524803907E-03
          0                16           1             4   15     1       0.1706256662E-03       4   15    1         0.2378524624E-03      0.2493334164E-03
          0                17           1             4   15     1       0.1255949186E-03       4   15    1         0.1750824578E-03      0.1804310207E-03
          0                18           1             4   15     1       0.9244728363E-04       4   15    1         0.1288752026E-03      0.1318745681E-03

    ------------------------------------------------
       NWT REQUIRED           18 OUTER ITERATIONS 
       AND A TOTAL OF         27 INNER ITERATIONS.
    ------------------------------------------------

 NO OUTPUT CONTROL FOR STRESS PERIOD    7   TIME STEP   11
 
 SOLVING FOR HEAD 
                                                   Max.-Head-Change                         Max.-Flux-Residual
  Residual-Control   Outer-Iter.   Inner-Iter.     Column Row Layer    Maximum-Head-Change  Column Row Layer    Maximum-Flux-Residual          L2-NORM 
          0                 1           2             4   15     2       0.2875234150E+00       4   15    2         0.2862208788E+01      0.7045326352E+01
          0                 2           2             4   15     2       0.1392623091E+00       4   15    2         0.1365053258E+01      0.3035503155E+01
          0                 3           2             4   15     1       0.9250249640E-01       4   15    2         0.6633084615E+00      0.1358995748E+01
          0                 4           2             4   15     1       0.7671081769E-01       4   15    2         0.3310867563E+00      0.6267498325E+00
          0                 5           2             4   15     1       0.6024660238E-01       4   15    2         0.1713196758E+00      0.2999763303E+00
          0                 6           2             4   15     1       0.4595155315E-01       4   15    2         0.9272792919E-01      0.1519972968E+00
          0                 7           2             4   15     1       0.3446470023E-01       4   15    2         0.5283732699E-01      0.8352497092E-01
          0                 8           2             4   15     1       0.2559220619E-01       4   15    1         0.3221637727E-01      0.5032324045E-01
          0                 9           2             4   15     1       0.1888865137E-01       4   15    1         0.2389652046E-01      0.3279335559E-01
          0                10           2             4   15     1       0.1388889408E-01       4   15    1         0.1762529568E-01      0.2251020280E-01
                                                   Max.-Head-Change                         Max.-Flux-Residual
  Residual-Control   Outer-Iter.   Inner-Iter.     Column Row Layer    Maximum-Head-Change  Column Row Layer    Maximum-Flux-Residual          L2-NORM 
          0                11           2             4   15     1       0.1018882796E-01       4   15    1         0.1295455961E-01      0.1591106478E-01
          0                12           2             4   15     1       0.7463633386E-02       4   15    1         0.9500945384E-02      0.1142077464E-01
          0                13           2             4   15     1       0.5462376219E-02       4   15    1         0.6958612302E-02      0.8263409022E-02
          0                14           2             4   15     1       0.3995446000E-02       4   15    1         0.5092252664E-02      0.6004332188E-02
          0                15           2             4   15     1       0.2921415709E-02       4   15    1         0.3724483006E-02      0.4373036320E-02
          0                16           2             4   15     1       0.2135618428E-02       4   15    1         0.2723182597E-02      0.3189175267E-02
          0                17           2             4   15     1       0.1560962413E-02       4   15    1         0.1990655826E-02      0.2327620082E-02
          0                18           2             4   15     1       0.1140834183E-02       4   15    1         0.1454983702E-02      0.1699608249E-02
          0                19           1             4   15     1       0.8337354026E-03       4   15    1         0.1063368800E-02      0.1241393285E-02
          0                20           1             4   15     1       0.6092823868E-03       4   15    1         0.7771179374E-03      0.9068727454E-03
                                                   Max.-Head-Change                         Max.-Flux-Residual
  Residual-Control   Outer-Iter.   Inner-Iter.     Column Row Layer    Maximum-Head-Change  Column Row Layer    Maximum-Flux-Residual          L2-NORM 
          0                21           1             4   15     1       0.4452453020E-03       4   15    1         0.5679049042E-03      0.6625683203E-03
          0                22           1             4   15     1       0.3253673616E-03       4   15    1         0.4150068616E-03      0.4841107120E-03
          0                23           1             4   15     1       0.2377632855E-03       4   15    1         0.3032698593E-03      0.3537346392E-03
          0                24           1             4   15     1       0.1737453480E-03       4   15    1         0.2216152473E-03      0.2584767704E-03
          0                25           1             4   15     1       0.1269638412E-03       4   15    1         0.1619450831E-03      0.1888761244E-03
          0                26           1             4   15     1       0.9277820406E-04       4   15    1         0.1183407916E-03      0.1380169940E-03

    ------------------------------------------------
       NWT REQUIRED           26 OUTER ITERATIONS 
       AND A TOTAL OF         44 INNER ITERATIONS.
    ------------------------------------------------

 NO OUTPUT CONTROL FOR STRESS PERIOD    7   TIME STEP   12
 
 SOLVING FOR HEAD 
                                                   Max.-Head-Change                         Max.-Flux-Residual
  Residual-Control   Outer-Iter.   Inner-Iter.     Column Row Layer    Maximum-Head-Change  Column Row Layer    Maximum-Flux-Residual          L2-NORM 
          0                 1           2             4   15     2       0.2683900916E+00       4   15    2         0.2434404381E+01      0.6589103323E+01
          0                 2           2             4   15     2       0.1238069598E+00       4   15    2         0.1102181314E+01      0.2735493498E+01
          0                 3           2             4   15     1       0.8633957237E-01       4   15    2         0.5105247239E+00      0.1186485449E+01
          0                 4           2             4   15     1       0.6924743998E-01       4   15    2         0.2444045118E+00      0.5299454302E+00
          0                 5           2             4   15     1       0.5268043128E-01       4   15    2         0.1222954129E+00      0.2452998852E+00
          0                 6           2             4   15     1       0.3897490131E-01       4   15    2         0.6461308159E-01      0.1199698313E+00
          0                 7           2             4   15     1       0.2838707183E-01       4   15    2         0.3624971829E-01      0.6359794944E-01
          0                 8           2             4   15     1       0.2048824689E-01       4   15    1         0.2404050689E-01      0.3706415770E-01
          0                 9           2             4   15     1       0.1470778648E-01       4   15    1         0.1733352816E-01      0.2346561980E-01
          0                10           2             4   15     1       0.1052412177E-01       4   15    1         0.1243558507E-01      0.1569921181E-01
                                                   Max.-Head-Change                         Max.-Flux-Residual
  Residual-Control   Outer-Iter.   Inner-Iter.     Column Row Layer    Maximum-Head-Change  Column Row Layer    Maximum-Flux-Residual          L2-NORM 
          0                11           2             4   15     1       0.7515826843E-02       4   15    1         0.8895006030E-02      0.1082994448E-01
          0                12           2             4   15     1       0.5361097823E-02       4   15    1         0.6350986920E-02      0.7588002702E-02
          0                13           2             4   15     1       0.3821362932E-02       4   15    1         0.4529601118E-02      0.5357679428E-02
          0                14           2             4   15     1       0.2722655089E-02       4   15    1         0.3228413176E-02      0.3797582781E-02
          0                15           2             4   15     1       0.1939326976E-02       4   15    1         0.2300074502E-02      0.2697162682E-02
          0                16           2             4   15     1       0.1381143316E-02       4   15    1         0.1638276458E-02      0.1917661692E-02
          0                17           1             4   15     1       0.9835202670E-03       4   15    1         0.1166720698E-02      0.1364248673E-02
          0                18           1             4   15     1       0.7003280954E-03       4   15    1         0.8308193417E-03      0.9708692643E-03
          0                19           1             4   15     1       0.4986590545E-03       4   15    1         0.5915914189E-03      0.6910550534E-03
          0                20           1             4   15     1       0.3550553386E-03       4   15    1         0.4212328344E-03      0.4919421932E-03
                                                   Max.-Head-Change                         Max.-Flux-Residual
  Residual-Control   Outer-Iter.   Inner-Iter.     Column Row Layer    Maximum-Head-Change  Column Row Layer    Maximum-Flux-Residual          L2-NORM 
          0                21           1             4   15     1       0.2528030935E-03       4   15    1         0.2999255418E-03      0.3502232203E-03
          0                22           1             4   15     1       0.1799969111E-03       4   15    1         0.2135497745E-03      0.2493415265E-03
          0                23           1             4   15     1       0.1281579268E-03       4   15    1         0.1520482324E-03      0.1775229319E-03
          0                24           1             4   15     1       0.9124824454E-04       4   15    1         0.1082583856E-03      0.1263939350E-03

    ------------------------------------------------
       NWT REQUIRED           24 OUTER ITERATIONS 
       AND A TOTAL OF         40 INNER ITERATIONS.
    ------------------------------------------------

 NO OUTPUT CONTROL FOR STRESS PERIOD    7   TIME STEP   13
 
 SOLVING FOR HEAD 
                                                   Max.-Head-Change                         Max.-Flux-Residual
  Residual-Control   Outer-Iter.   Inner-Iter.     Column Row Layer    Maximum-Head-Change  Column Row Layer    Maximum-Flux-Residual          L2-NORM 
          0                 1           2             4   15     2       0.2909818321E+00       4   15    2         0.2399590056E+01      0.6999905769E+01
          0                 2           2             4   15     2       0.7358190464E+01       4   15    2         0.2418003505E+01      0.3613639746E+01
          0                 3           3             4   15     2       0.7378907490E+02       4   15    2         0.3207705771E+02      0.3677279991E+02
          0                 4           3             4   15     2       0.1835454244E+03       4   15    2         0.1420137535E+03      0.1420391718E+03
          0                 5           2             4   15     2      -0.1765855004E+02       4   15    2        -0.1420137556E+02      0.1516478196E+02
          0                 6           2             4   15     2       0.1034669785E+01       3   15    2         0.1433557173E+01      0.2009716704E+01
          0                 7           2             3   15     1       0.2695210073E+00       3   15    2         0.7196626072E+00      0.9051999446E+00
          0                 8           2             3   15     1       0.1973099849E+00       3   15    2         0.3709169626E+00      0.4741106655E+00
          0                 9           2             3   15     1       0.1413309368E+00       3   15    2         0.2024163830E+00      0.2695056534E+00
          0                10           2             3   15     1       0.9996653609E-01       3   15    2         0.1168759668E+00      0.1649055902E+00
                                                   Max.-Head-Change                         Max.-Flux-Residual
  Residual-Control   Outer-Iter.   Inner-Iter.     Column Row Layer    Maximum-Head-Change  Column Row Layer    Maximum-Flux-Residual          L2-NORM 
          0                11           2             3   15     1       0.7018168007E-01       3   15    1         0.7669542146E-01      0.1063086799E+00
          0                12           2             3   15     1       0.4904932409E-01       3   15    1         0.5379818780E-01      0.7076364478E-01
          0                13           2             3   15     1       0.3418600778E-01       3   15    1         0.3757957461E-01      0.4796854515E-01
          0                14           2             3   15     1       0.2378658946E-01       3   15    1         0.2618362072E-01      0.3284745507E-01
          0                15           2             3   15     1       0.1653354912E-01       3   15    1         0.1821499729E-01      0.2262128814E-01
          0                16           2             3   15     1       0.1148478171E-01       3   15    1         0.1265934158E-01      0.1562968909E-01
          0                17           1             3   15     1       0.7974588753E-02       3   15    1         0.8792974151E-02      0.1081973020E-01
          0                18           1             3   15     1       0.5535899097E-02       3   15    1         0.6105224401E-02      0.7498662118E-02
          0                19           1             3   15     1       0.3842401376E-02       3   15    1         0.4238081846E-02      0.5200677575E-02
          0                20           1             3   15     1       0.2666716964E-02       3   15    1         0.2941551119E-02      0.3608538723E-02
                                                   Max.-Head-Change                         Max.-Flux-Residual
  Residual-Control   Outer-Iter.   Inner-Iter.     Column Row Layer    Maximum-Head-Change  Column Row Layer    Maximum-Flux-Residual          L2-NORM 
          0                21           1             3   15     1       0.1850657963E-02       3   15    1         0.2041483930E-02      0.2504555810E-02
          0                22           1             3   15     1       0.1284280720E-02       3   15    1         0.1416747147E-02      0.1738670835E-02
          0                23           1             3   15     1       0.8912185597E-03       3   15    1         0.9831604241E-03      0.1207167308E-02
          0                24           1             3   15     1       0.6184471317E-03       3   15    1         0.6822563108E-03      0.8382385309E-03
          0                25           1             3   15     1       0.4291580739E-03       3   15    1         0.4734403291E-03      0.5821155368E-03
          0                26           1             3   15     1       0.2978034604E-03       3   15    1         0.3285334129E-03      0.4042870605E-03
          0                27           1             3   15     1       0.2066525635E-03       3   15    1         0.2279773725E-03      0.2808066116E-03
          0                28           1             3   15     1       0.1434006072E-03       3   15    1         0.1581986036E-03      0.1950573568E-03
          0                29           1             3   15     1       0.9950860694E-04       3   15    1         0.1097773500E-03      0.1355064106E-03

    ------------------------------------------------
       NWT REQUIRED           29 OUTER ITERATIONS 
       AND A TOTAL OF         47 INNER ITERATIONS.
    ------------------------------------------------

 NO OUTPUT CONTROL FOR STRESS PERIOD    7   TIME STEP   14
 
 SOLVING FOR HEAD 
                                                   Max.-Head-Change                         Max.-Flux-Residual
  Residual-Control   Outer-Iter.   Inner-Iter.     Column Row Layer    Maximum-Head-Change  Column Row Layer    Maximum-Flux-Residual          L2-NORM 
          0                 1           3             4   15     2      -0.2602252540E+03       4   15    2        -0.1142588379E+03      0.1470623963E+03
          0                 2           2             4   15     2       0.1340522237E+02       4   15    2         0.1069682611E+03      0.1073877436E+03
          0                 3           2             4   15     2       0.1130924889E+02       4   15    2         0.4759007784E+01      0.4929295225E+01
          0                 4           2             4   15     2      -0.1083100049E+01       4   15    2        -0.4921266375E+00      0.8765747256E+00
          0                 5           2             3   15     1       0.7173293689E-01       3   15    2         0.1746238750E+00      0.2981196646E+00
          0                 6           2             3   15     1       0.5135277473E-01       3   15    2         0.9166989678E-01      0.1518652908E+00
          0                 7           2             3   15     1       0.3595011760E-01       3   15    2         0.5021855734E-01      0.8489107079E-01
          0                 8           2             3   15     1       0.2484199433E-01       3   15    2         0.2900172898E-01      0.5137029354E-01
          0                 9           2             3   15     1       0.1703298344E-01       3   15    2         0.1752014790E-01      0.3287982369E-01
          0                10           2             3   15     1       0.1162349733E-01       3   15    1         0.1183507726E-01      0.2176427436E-01
                                                   Max.-Head-Change                         Max.-Flux-Residual
  Residual-Control   Outer-Iter.   Inner-Iter.     Column Row Layer    Maximum-Head-Change  Column Row Layer    Maximum-Flux-Residual          L2-NORM 
          0                11           2            10   10     1       0.8218961838E-02      10   10    1         0.8107889275E-02      0.1468041457E-01
          0                12           1            10   10     1       0.5805428369E-02      10   10    1         0.5732735793E-02      0.1000717384E-01
          0                13           1            10   10     1       0.4097536339E-02      10   10    1         0.4048719270E-02      0.6863596845E-02
          0                14           1            10   10     1       0.2890746380E-02      10   10    1         0.2857383513E-02      0.4725458708E-02
          0                15           1            10   10     1       0.2038795711E-02      10   10    1         0.2015731275E-02      0.3261635274E-02
          0                16           1            10   10     1       0.1437678237E-02      10   10    1         0.1421615698E-02      0.2255356155E-02
          0                17           1            10   10     1       0.1013685444E-02      10   10    1         0.1002447241E-02      0.1561719017E-02
          0                18           1            10   10     1       0.7146875144E-03      10   10    1         0.7068019162E-03      0.1082653026E-02
          0                19           1            10   10     1       0.5038620720E-03      10   10    1         0.4983189947E-03      0.7512870383E-03
          0                20           1            10   10     1       0.3552191656E-03      10   10    1         0.3513184150E-03      0.5218080085E-03
                                                   Max.-Head-Change                         Max.-Flux-Residual
  Residual-Control   Outer-Iter.   Inner-Iter.     Column Row Layer    Maximum-Head-Change  Column Row Layer    Maximum-Flux-Residual          L2-NORM 
          0                21           1            10   10     1       0.2504231717E-03      10   10    1         0.2476762770E-03      0.3627220661E-03
          0                22           1            10   10     1       0.1765422190E-03      10   10    1         0.1746070524E-03      0.2523322813E-03
          0                23           1            10   10     1       0.1244572393E-03      10   10    1         0.1230935764E-03      0.1756670861E-03
          0                24           1            10   10     1       0.8773850280E-04      10   10    1         0.8677741101E-04      0.1223805557E-03

    ------------------------------------------------
       NWT REQUIRED           24 OUTER ITERATIONS 
       AND A TOTAL OF         36 INNER ITERATIONS.
    ------------------------------------------------

 OUTPUT CONTROL FOR STRESS PERIOD    7   TIME STEP   15
    PRINT BUDGET
    PRINT HEAD FOR ALL LAYERS
    SAVE HEAD FOR ALL LAYERS
    SAVE BUDGET

            WELLS   PERIOD    7   STEP  15
 WELL      1   LAYER   1   ROW     6   COL     4   RATE    -2.00000    
 WELL      2   LAYER   1   ROW     6   COL     5   RATE    -2.00000    
 WELL      3   LAYER   1   ROW     7   COL     4   RATE    -2.00000    
 WELL      4   LAYER   1   ROW     7   COL     5   RATE    -2.00000    
 WELL      5   LAYER   1   ROW     8   COL     4   RATE    -2.00000    
 WELL      6   LAYER   1   ROW     8   COL     5   RATE    -2.00000    
 WELL      7   LAYER   1   ROW     9   COL     4   RATE    -2.00000    
 WELL      8   LAYER   1   ROW     9   COL     5   RATE    -2.00000    
 WELL      9   LAYER   1   ROW    10   COL     4   RATE    -2.00000    
 WELL     10   LAYER   1   ROW    10   COL     5   RATE    -2.00000    

  HEAD DEP BOUNDS   PERIOD    7   STEP    15
 BOUNDARY      1   LAYER   1   ROW    13   COL     1   RATE   -0.286478    
 BOUNDARY      2   LAYER   1   ROW    14   COL     9   RATE    0.205848    



 STREAM LISTING     PERIOD      7   STEP       15

 LAYER ROW COL. STREAM  RCH.  FLOW INTO     FLOW TO   FLOW OUT OF   OVRLND.     DIRECT     STREAM       STREAM     STREAM     STREAM   STREAMBED  STREAMBED
                SEG.NO.  NO.  STRM. RCH.    AQUIFER    STRM. RCH.    RUNOFF     PRECIP       ET          HEAD       DEPTH      WIDTH   CONDCTNC.   GRADIENT

   1    1    1     1     1    2.5000E+01  1.1883E+00   2.3812E+01  0.000E+00  0.000E+00  0.000E+00  1.09422E+03  1.171E+00  1.294E+01  5.825E-01  6.801E-01
   1    2    2     1     2    2.3812E+01  2.6506E+00   2.1161E+01  0.000E+00  0.000E+00  0.000E+00  1.08920E+03  1.141E+00  1.255E+01  8.783E-01  1.006E+00
   1    3    3     1     3    2.1161E+01  2.9263E+00   1.8235E+01  0.000E+00  0.000E+00  0.000E+00  1.08351E+03  1.095E+00  1.191E+01  7.146E-01  1.365E+00
   1    3    4     1     4    1.8235E+01  2.4867E+00   1.5748E+01  0.000E+00  0.000E+00  0.000E+00  1.07846E+03  1.049E+00  1.107E+01  6.141E-01  1.350E+00
   1    4    5     2     1    5.7480E+00  2.6727E+00   3.0753E+00  0.000E+00  0.000E+00  0.000E+00  1.07236E+03  4.265E-01  1.200E+01  7.800E-01  1.142E+00
   1    5    6     2     2    3.0753E+00  1.9636E+00   1.1117E+00  0.000E+00  0.000E+00  0.000E+00  1.06678E+03  2.727E-01  1.200E+01  6.000E-01  1.091E+00
   1    6    6     2     3    1.1117E+00  1.1117E+00   0.0000E+00  0.000E+00  0.000E+00  0.000E+00  1.06183E+03  4.197E-02  1.200E+01  6.000E-01  1.014E+00
   1    7    6     2     4    0.0000E+00  0.0000E+00   0.0000E+00  0.000E+00  0.000E+00  0.000E+00  1.05708E+03  0.000E+00  1.200E+01  6.000E-01  1.000E+00
   1    8    6     2     5    0.0000E+00  0.0000E+00   0.0000E+00  0.000E+00  0.000E+00  0.000E+00  1.05236E+03  0.000E+00  1.200E+01  6.000E-01  1.000E+00
   1    3    5     3     1    1.0000E+01  1.3531E+00   8.6469E+00  0.000E+00  0.000E+00  0.000E+00  1.07555E+03  1.909E+00  9.636E+00  7.227E-01  9.361E-01
   1    3    6     3     2    8.6469E+00  9.6646E-01   7.6805E+00  0.000E+00  0.000E+00  0.000E+00  1.07264E+03  1.727E+00  8.909E+00  6.682E-01  7.232E-01
   1    3    7     3     3    7.6805E+00  5.9651E-01   7.0840E+00  0.000E+00  0.000E+00  0.000E+00  1.06987E+03  1.555E+00  8.218E+00  5.547E-01  5.377E-01
   1    4    8     3     4    7.0840E+00  1.4475E+00   5.6365E+00  0.000E+00  0.000E+00  0.000E+00  1.06682E+03  1.364E+00  7.455E+00  6.709E-01  1.079E+00
   1    5    8     3     5    5.6365E+00  1.5252E+00   4.1113E+00  0.000E+00  0.000E+00  0.000E+00  1.06362E+03  1.164E+00  6.655E+00  4.991E-01  1.528E+00
   1    6    8     3     6    4.1113E+00  5.5980E-01   3.5515E+00  0.000E+00  0.000E+00  0.000E+00  1.06158E+03  1.036E+00  6.145E+00  1.844E-01  1.518E+00
   1    5   10     4     1    1.0000E+01  9.0525E-01   9.0947E+00  0.000E+00  0.000E+00  0.000E+00  1.07835E+03  6.210E-01  1.000E+01  2.500E-01  1.207E+00
   1    5    9     4     2    9.0947E+00  1.7835E+00   7.3113E+00  0.000E+00  0.000E+00  0.000E+00  1.07148E+03  5.670E-01  1.000E+01  5.000E-01  1.189E+00
   1    6    8     4     3    7.3113E+00  1.2257E+00   6.0855E+00  0.000E+00  0.000E+00  0.000E+00  1.06368E+03  5.021E-01  1.000E+01  3.500E-01  1.167E+00
   1    6    8     5     1    9.6370E+00  3.0043E-01   9.3366E+00  0.000E+00  0.000E+00  0.000E+00  1.05866E+03  6.593E-01  1.466E+01  5.863E-01  1.708E-01
   1    7    7     5     2    9.3366E+00  1.3608E+00   7.9758E+00  0.000E+00  0.000E+00  0.000E+00  1.05414E+03  6.385E-01  1.387E+01  6.937E-01  6.539E-01
   1    8    7     5     3    7.9758E+00  1.0179E+00   6.9579E+00  0.000E+00  0.000E+00  0.000E+00  1.04986E+03  6.063E-01  1.270E+01  4.444E-01  7.636E-01
   1    8    6     5     4    6.9579E+00  1.0214E+00   5.9364E+00  0.000E+00  0.000E+00  0.000E+00  1.04683E+03  5.760E-01  1.163E+01  2.906E-01  1.171E+00
   1    9    6     6     1    5.9364E+00  1.9607E+00   3.9757E+00  0.000E+00  0.000E+00  0.000E+00  1.04319E+03  4.624E-01  1.200E+01  6.000E-01  1.089E+00
   1   10    7     6     2    3.9757E+00  1.2686E+00   2.7071E+00  0.000E+00  0.000E+00  0.000E+00  1.03855E+03  3.650E-01  1.200E+01  6.000E-01  7.048E-01
   1   11    7     6     3    2.7071E+00  9.4603E-01   1.7611E+00  0.000E+00  0.000E+00  0.000E+00  1.03392E+03  2.867E-01  1.200E+01  6.000E-01  5.256E-01
   1   12    7     6     4    1.7611E+00  4.7038E-01   1.2907E+00  0.000E+00  0.000E+00  0.000E+00  1.02932E+03  2.281E-01  1.200E+01  6.000E-01  2.613E-01
   1   13    7     6     5    1.2907E+00 -7.9821E-01   2.0889E+00  0.000E+00  0.000E+00  0.000E+00  1.02615E+03  2.425E-01  1.200E+01  2.400E-01 -1.109E+00
   1   14    9     7     1    1.5000E+02  1.5927E+00   1.4841E+02  0.000E+00  0.000E+00  0.000E+00  1.03987E+03  2.287E+00  5.529E+01  5.593E+00  9.493E-02
   1   13    8     7     2    1.4841E+02  1.6278E+00   1.4678E+02  0.000E+00  0.000E+00  0.000E+00  1.03478E+03  2.278E+00  5.525E+01  6.147E+00  8.827E-02
   1   13    7     7     3    1.4678E+02  1.1888E+00   1.4559E+02  0.000E+00  0.000E+00  0.000E+00  1.02969E+03  2.271E+00  5.522E+01  5.585E+00  7.096E-02
   1   13    6     8     1    1.4768E+02  2.5728E-02   1.4765E+02  0.000E+00  0.000E+00  0.000E+00  1.02468E+03  2.800E+00  4.060E+01  4.138E+00  2.073E-03
   1   13    5     8     2    1.4765E+02 -5.7696E-01   1.4823E+02  0.000E+00  0.000E+00  0.000E+00  1.01843E+03  2.802E+00  4.063E+01  4.141E+00 -4.645E-02
   1   13    4     8     3    1.4823E+02 -1.4981E+00   1.4973E+02  0.000E+00  0.000E+00  0.000E+00  1.01218E+03  2.810E+00  4.074E+01  4.152E+00 -1.203E-01
   1   13    3     8     4    1.4973E+02 -2.2011E+00   1.5193E+02  0.000E+00  0.000E+00  0.000E+00  1.00595E+03  2.823E+00  4.093E+01  4.171E+00 -1.759E-01
   1   13    2     8     5    1.5193E+02 -2.2474E+00   1.5418E+02  0.000E+00  0.000E+00  0.000E+00  9.99713E+02  2.838E+00  4.115E+01  4.194E+00 -1.786E-01
   1   13    1     8     6    1.5418E+02 -2.0509E+00   1.5623E+02  0.000E+00  0.000E+00  0.000E+00  9.94728E+02  2.853E+00  4.137E+01  2.529E+00 -2.703E-01



 UBDSV3 SAVING "           GW ET" ON UNIT  61 AT TIME STEP 15, STRESS PERIOD   7
 UBDSV3 SAVING "    UZF RECHARGE" ON UNIT  61 AT TIME STEP 15, STRESS PERIOD   7
 UBDSV3 SAVING " SURFACE LEAKAGE" ON UNIT  61 AT TIME STEP 15, STRESS PERIOD   7
 UBDSV3 SAVING "       HORT+DUNN" ON UNIT  61 AT TIME STEP 15, STRESS PERIOD   7
 UBDSV3 SAVING "  STORAGE CHANGE" ON UNIT  61 AT TIME STEP 15, STRESS PERIOD   7


UNSATURATED ZONE PACKAGE VOLUMETRIC BUDGET FOR  TIME STEP    15 STRESS PERIOD    7
  ------------------------------------------------------------------------------



     CUMULATIVE VOLUMES      L**3       RATES FOR THIS TIME STEP      L**3/T
     ------------------                 ------------------------

           IN:                                      IN:
           ---                                      ---
        INFILTRATION =  1269349669.3809          INFILTRATION =          25.4250

          OUT:                                     OUT:
          ----                                     ----
              UZF ET =        8040.5740                UZF ET =       0.0000E+00
        UZF RECHARGE =   628054767.8120          UZF RECHARGE =          77.4154

            IN - OUT =   641286860.9948              IN - OUT =         -51.9904

          STORAGE:                                 STORAGE:
          --------                                 --------
      STORAGE CHANGE =   641703576.0793        STORAGE CHANGE =         -51.5221

 PERCENT DISCREPANCY IS DIFFERENCE BETWEEN IN-OUT MINUS CHANGE IN STORAGE
 DIVIDED BY THE AVERAGE OF IN AND OUT TIMES 100

 PERCENT DISCREPANCY =          -0.01     PERCENT DISCREPANCY =          -0.60






1
              HEAD IN LAYER   1 AT END OF TIME STEP  15 IN STRESS PERIOD    7
  ---------------------------------------------------------------------------

           1       2       3       4       5       6       7       8       9      10
 ...................................................................................
   1  1092.18 1087.70 6999.00 6999.00 6999.00 6999.00 6999.00 6999.00 6999.00 6999.00
   2  1088.60 1086.18 1078.24 6999.00 6999.00 1078.14 1077.13 1069.59 6999.00 6999.00
   3  6999.00 1078.14 1078.58 1073.97 1073.67 1071.19 1068.80 1069.98 6999.00 6999.00
   4  1070.91 1068.26 1064.87 1063.49 1066.07 1061.40 1059.93 1064.66 1062.17 6999.00
   5  1066.52 1059.48 1055.71 1053.31 1055.56 1060.36 1057.11 1060.56 1064.18 1065.57
   6  1062.97 1054.24 1052.42 1038.60 1041.83 1052.94 1053.95 1058.15 1057.72 1065.81
   7  1059.12 1049.17 1046.94 1030.00 1033.81 1045.66 1052.18 1052.65 1053.38 6999.00
   8  6999.00 1044.32 1042.26 1026.11 1029.66 1043.31 1047.57 1047.81 1049.82 6999.00
   9  6999.00 1038.04 1037.45 1022.31 1026.29 1039.92 1040.12 1041.55 1045.51 6999.00
  10  6999.00 1031.80 1032.97 1020.31 1022.89 1032.15 1036.43 1037.27 1041.82 1047.53
  11  6999.00 1023.82 1024.35 1023.91 1025.59 1028.82 1032.35 1034.88 1038.93 6999.00
  12  1006.74 1013.45 1015.79 1019.37 1022.11 1025.20 1028.54 1030.71 1035.25 6999.00
  13   995.54 1000.25 1006.48 1012.55 1018.57 1024.67 1029.48 1034.51 1035.86 6999.00
  14  6999.00 1013.69 1021.10 1026.50 1029.80 1033.09 1035.78 1036.05 1039.58 6999.00
  15  6999.00 6999.00 1029.68 1040.47 1036.31 1037.35 6999.00 6999.00 6999.00 6999.00
1
              HEAD IN LAYER   2 AT END OF TIME STEP  15 IN STRESS PERIOD    7
  ---------------------------------------------------------------------------

           1       2       3       4       5       6       7       8       9      10
 ...................................................................................
   1  1091.07 1087.19 6999.00 6999.00 6999.00 6999.00 6999.00 6999.00 6999.00 6999.00
   2  1088.26 1081.12 1075.66 6999.00 6999.00 1076.64 1075.51 1070.04 6999.00 6999.00
   3  6999.00 1074.46 1068.53 1064.68 1064.10 1065.38 1066.40 1068.33 6999.00 6999.00
   4  1069.58 1067.12 1062.78 1059.19 1057.76 1057.34 1058.78 1062.15 1061.85 6999.00
   5  1065.43 1059.66 1056.04 1053.79 1053.48 1053.80 1054.16 1056.03 1059.95 1064.02
   6  1061.68 1054.50 1050.88 1048.64 1048.82 1050.07 1051.40 1053.32 1057.02 1065.07
   7  1058.15 1049.49 1045.91 1043.82 1044.39 1046.02 1047.99 1050.50 1053.30 6999.00
   8  6999.00 1043.87 1041.25 1039.42 1040.16 1041.87 1043.76 1047.39 1049.54 6999.00
   9  6999.00 1037.67 1036.35 1035.11 1036.02 1037.74 1039.22 1041.53 1045.21 6999.00
  10  6999.00 1031.51 1031.55 1031.32 1032.46 1034.12 1035.42 1037.35 1041.61 1047.53
  11  6999.00 1024.17 1025.48 1027.92 1029.55 1031.28 1032.76 1034.66 1038.37 6999.00
  12  1007.07 1014.95 1020.25 1024.15 1026.82 1029.07 1030.75 1032.12 1035.34 6999.00
  13  1000.47 1008.12 1016.37 1021.80 1025.31 1028.18 1030.63 1033.09 1035.63 6999.00
  14  6999.00 1014.08 1020.64 1026.56 1029.27 1032.03 1034.17 1035.46 1037.19 6999.00
  15  6999.00 6999.00 1029.57 1041.69 1036.44 1036.92 6999.00 6999.00 6999.00 6999.00

 HEAD WILL BE SAVED ON UNIT   58 AT END OF TIME STEP   15, STRESS PERIOD    7
1
  VOLUMETRIC BUDGET FOR ENTIRE MODEL AT END OF TIME STEP   15, STRESS PERIOD   7
  ------------------------------------------------------------------------------

     CUMULATIVE VOLUMES      L**3       RATES FOR THIS TIME STEP      L**3/T
     ------------------                 ------------------------

           IN:                                      IN:
           ---                                      ---
             STORAGE     =    60378656.0000               STORAGE     =           6.9179
       CONSTANT HEAD     =           0.0000         CONSTANT HEAD     =           0.0000
               WELLS     =           0.0000                 WELLS     =           0.0000
     HEAD DEP BOUNDS     =     3810251.0000       HEAD DEP BOUNDS     =           0.2058
      STREAM LEAKAGE     =   730828352.0000        STREAM LEAKAGE     =          38.1443
        UZF RECHARGE     =   628054848.0000          UZF RECHARGE     =          77.4154
               GW ET     =           0.0000                 GW ET     =           0.0000
     SURFACE LEAKAGE     =           0.0000       SURFACE LEAKAGE     =           0.0000

                TOTAL IN =  1423072128.0000                  TOTAL IN =         122.6835

          OUT:                                     OUT:
          ----                                     ----
             STORAGE     =   522528064.0000               STORAGE     =          68.6834
       CONSTANT HEAD     =           0.0000         CONSTANT HEAD     =           0.0000
               WELLS     =   289079936.0000                 WELLS     =          20.0000
     HEAD DEP BOUNDS     =     5209539.0000       HEAD DEP BOUNDS     =           0.2865
      STREAM LEAKAGE     =   150037088.0000        STREAM LEAKAGE     =           9.3727
        UZF RECHARGE     =           0.0000          UZF RECHARGE     =           0.0000
               GW ET     =   434383072.0000                 GW ET     =          24.3408
     SURFACE LEAKAGE     =    21823828.0000       SURFACE LEAKAGE     =           0.0000

               TOTAL OUT =  1423061632.0000                 TOTAL OUT =         122.6833

                IN - OUT =       10496.0000                  IN - OUT =       2.0599E-04

     PERCENT DISCREPANCY =           0.00         PERCENT DISCREPANCY =           0.00






         TIME SUMMARY AT END OF TIME STEP   15 IN STRESS PERIOD    7
                    SECONDS     MINUTES      HOURS       DAYS        YEARS
                    -----------------------------------------------------------
   TIME STEP LENGTH 3.14103E+05  5235.0      87.251      3.6354     9.95332E-03
 STRESS PERIOD TIME 2.62800E+06  43800.      730.00      30.417     8.32763E-02
         TOTAL TIME 1.83960E+07 3.06600E+05  5110.0      212.92     0.58293    
1
1
                            STRESS PERIOD NO.    8, LENGTH =   2628000.    
                            -----------------------------------------------

                              NUMBER OF TIME STEPS =    15

                               MULTIPLIER FOR DELT =     1.100

                            INITIAL TIME STEP SIZE =   82713.07    

      0 WELLS

 REUSING NON-PARAMETER GHB CELLS FROM LAST STRESS PERIOD

      2 GHB CELLS

 REUSING STREAM SEGMENT DATA FROM LAST STRESS PERIOD



            AREAL INFILTRATION RATE
 READING ON UNIT   19 WITH FORMAT: (10F4.0)            

            1           2           3           4           5           6           7           8           9          10
 ........................................................................................................................
   1   5.0000E-09  1.0000E-08   0.000       0.000       0.000       0.000       0.000       0.000       0.000       0.000    
   2   1.0000E-08  5.0000E-09  1.0000E-08   0.000       0.000      4.0000E-08  4.0000E-08  2.5000E-08   0.000       0.000    
   3    0.000      2.5000E-08  5.0000E-09  5.0000E-09  4.0000E-08  4.0000E-08  2.5000E-08  2.5000E-08   0.000       0.000    
   4   4.0000E-08  2.5000E-08  5.0000E-09  5.0000E-09  5.0000E-09  5.0000E-09  5.0000E-09  5.0000E-09  1.0000E-08   0.000    
   5   4.0000E-08  2.5000E-08  5.0000E-09  5.0000E-09  5.0000E-09  5.0000E-09  5.0000E-09  5.0000E-09  5.0000E-09  5.0000E-09
   6   4.0000E-08  2.5000E-08  2.5000E-08  1.0000E-08  1.0000E-08  5.0000E-09  5.0000E-09  5.0000E-09  5.0000E-09  2.5000E-08
   7   4.0000E-08  2.5000E-08  2.5000E-08  1.0000E-08  1.0000E-08  5.0000E-09  5.0000E-09  1.0000E-08  1.0000E-08   0.000    
   8    0.000      2.5000E-08  2.5000E-08  1.0000E-08  1.0000E-08  5.0000E-09  5.0000E-09  1.0000E-08  2.5000E-08   0.000    
   9    0.000      2.5000E-08  2.5000E-08  1.0000E-08  1.0000E-08  5.0000E-09  5.0000E-09  1.0000E-08  2.5000E-08   0.000    
  10    0.000      2.5000E-08  2.5000E-08  1.0000E-08  1.0000E-08  5.0000E-09  5.0000E-09  1.0000E-08  2.5000E-08  4.0000E-08
  11    0.000      5.0000E-09  5.0000E-09  5.0000E-09  5.0000E-09  5.0000E-09  5.0000E-09  1.0000E-08  2.5000E-08   0.000    
  12   5.0000E-09  5.0000E-09  5.0000E-09  5.0000E-09  5.0000E-09  5.0000E-09  5.0000E-09  5.0000E-09  1.0000E-08   0.000    
  13   5.0000E-09  5.0000E-09  1.0000E-08  1.0000E-08  1.0000E-08  1.0000E-08  1.0000E-08  5.0000E-09  5.0000E-09   0.000    
  14    0.000      1.0000E-08  2.5000E-08  2.5000E-08  2.5000E-08  2.5000E-08  2.5000E-08  1.0000E-08  5.0000E-09   0.000    
  15    0.000       0.000      4.0000E-08  4.0000E-08  4.0000E-08  4.0000E-08   0.000       0.000       0.000       0.000    

USING ET RATE FROM PREVIOUS STRESS PERIOD. CURRENT PERIOD IS:       8

 USING ET EXTINCTION DEPTH FROM PREVIOUS STRESS PERIOD. CURRENT PERIOD IS:       8

 USING EXTINCTION WATER CONTENT FROM PREVIOUS STRESS PERIOD. CURRENT PERIOD IS:       8
 
 SOLVING FOR HEAD 
                                                   Max.-Head-Change                         Max.-Flux-Residual
  Residual-Control   Outer-Iter.   Inner-Iter.     Column Row Layer    Maximum-Head-Change  Column Row Layer    Maximum-Flux-Residual          L2-NORM 
          0                 1           2             4   15     2      -0.3361164589E+01      10   10    2         0.2314489843E+01      0.9065619002E+01
          0                 2           2             4   15     2       0.3282602426E+00      10   10    2         0.1078233701E+01      0.2680744391E+01
          0                 3           2            10   10     2       0.1823197075E-01      10   10    2         0.5036694760E+00      0.1109208239E+01
          0                 4           2            10   10     1       0.1257009963E-01      10   10    2         0.2365269562E+00      0.4765542446E+00
          0                 5           2            10   10     1       0.1169534924E-01      10   10    2         0.1121850986E+00      0.2119607823E+00
          0                 6           2            10   10     1       0.1066370905E-01      10   10    2         0.5419116505E-01      0.1019675115E+00
          0                 7           1            10   10     1       0.9625982857E-02      10   10    1         0.2904254532E-01      0.5809997730E-01
          0                 8           1            10   10     1       0.8645073714E-02      10   10    1         0.2619249433E-01      0.4111665694E-01
          0                 9           1            10   10     1       0.7743825273E-02      10   10    1         0.2351248160E-01      0.3351714915E-01
          0                10           1            10   10     1       0.6927157870E-02      10   10    1         0.2105625611E-01      0.2889713348E-01
                                                   Max.-Head-Change                         Max.-Flux-Residual
  Residual-Control   Outer-Iter.   Inner-Iter.     Column Row Layer    Maximum-Head-Change  Column Row Layer    Maximum-Flux-Residual          L2-NORM 
          0                11           1            10   10     1       0.6192275749E-02      10   10    1         0.1883331618E-01      0.2537305628E-01
          0                12           1            10   10     1       0.5533342348E-02      10   10    1         0.1683426148E-01      0.2241353220E-01
          0                13           1            10   10     1       0.4943593533E-02      10   10    1         0.1504238995E-01      0.1984367298E-01
          0                14           1            10   10     1       0.4416267216E-02      10   10    1         0.1343892586E-01      0.1758577329E-01
          0                15           1            10   10     1       0.3944988851E-02      10   10    1         0.1200530698E-01      0.1559283696E-01
          0                16           1            10   10     1       0.3523909170E-02      10   10    1         0.1072412111E-01      0.1383019134E-01
          0                17           1            10   10     1       0.3147731288E-02      10   10    1         0.9579428823E-02      0.1226963982E-01
          0                18           1            10   10     1       0.2811690347E-02      10   10    1         0.8556813063E-02      0.1088722198E-01
          0                19           1            10   10     1       0.2511514655E-02      10   10    1         0.7643312716E-02      0.9662161153E-02
          0                20           1            10   10     1       0.2243381365E-02      10   10    1         0.6827311763E-02      0.8576265110E-02
                                                   Max.-Head-Change                         Max.-Flux-Residual
  Residual-Control   Outer-Iter.   Inner-Iter.     Column Row Layer    Maximum-Head-Change  Column Row Layer    Maximum-Flux-Residual          L2-NORM 
          0                21           1            10   10     1       0.2003872415E-02      10   10    1         0.6098416395E-02      0.7613526466E-02
          0                22           1            10   10     1       0.1789933115E-02      10   10    1         0.5447334141E-02      0.6759824380E-02
          0                23           1            10   10     1       0.1598834183E-02      10   10    1         0.4865760756E-02      0.6002685091E-02
          0                24           1            10   10     1       0.1428137388E-02      10   10    1         0.4346276791E-02      0.5331081129E-02
          0                25           1            10   10     1       0.1275664661E-02      10   10    1         0.3882254084E-02      0.4735258876E-02
          0                26           1            10   10     1       0.1139470396E-02      10   10    1         0.3467771736E-02      0.4206588577E-02
          0                27           1            10   10     1       0.1017816676E-02      10   10    1         0.3097540803E-02      0.3737433114E-02
          0                28           1            10   10     1       0.9091511151E-03      10   10    1         0.2766836922E-02      0.3321032299E-02
          0                29           1            10   10     1       0.8120870577E-03      10   10    1         0.2471440084E-02      0.2951401224E-02
          0                30           1            10   10     1       0.7253858893E-03      10   10    1         0.2207580802E-02      0.2623240158E-02
                                                   Max.-Head-Change                         Max.-Flux-Residual
  Residual-Control   Outer-Iter.   Inner-Iter.     Column Row Layer    Maximum-Head-Change  Column Row Layer    Maximum-Flux-Residual          L2-NORM 
          0                31           1            10   10     1       0.6479412334E-03      10   10    1         0.1971892026E-02      0.2331855815E-02
          0                32           1            10   10     1       0.5787648330E-03      10   10    1         0.1761366180E-02      0.2073090784E-02
          0                33           1            10   10     1       0.5169739408E-03      10   10    1         0.1573316785E-02      0.1843261975E-02
          0                34           1            10   10     1       0.4617800541E-03      10   10    1         0.1405344179E-02      0.1639106299E-02
          0                35           1            10   10     1       0.4124788545E-03      10   10    1         0.1255304897E-02      0.1457731543E-02
          0                36           1            10   10     1       0.3684412186E-03      10   10    1         0.1121284315E-02      0.1296574641E-02
          0                37           1            10   10     1       0.3291051901E-03      10   10    1         0.1001572224E-02      0.1153363255E-02
          0                38           1            10   10     1       0.2939688094E-03      10   10    1         0.8946409989E-03      0.1026082846E-02
          0                39           1            10   10     1       0.2625837076E-03      10   10    1         0.7991261128E-03      0.9129471577E-03
          0                40           1            10   10     1       0.2345493856E-03      10   10    1         0.7138087180E-03      0.8123716358E-03
                                                   Max.-Head-Change                         Max.-Flux-Residual
  Residual-Control   Outer-Iter.   Inner-Iter.     Column Row Layer    Maximum-Head-Change  Column Row Layer    Maximum-Flux-Residual          L2-NORM 
          0                41           1            10   10     1       0.2095081023E-03      10   10    1         0.6376000961E-03      0.7229512097E-03
          0                42           1            10   10     1       0.1871403113E-03      10   10    1         0.5695277636E-03      0.6434388410E-03
          0                43           1            10   10     1       0.1671605811E-03      10   10    1         0.5087230626E-03      0.5727284258E-03
          0                44           1            10   10     1       0.1493139546E-03      10   10    1         0.4544100764E-03      0.5098387493E-03
          0                45           1            10   10     1       0.1333726938E-03      10   10    1         0.4058957275E-03      0.4538977953E-03
          0                46           1            10   10     1       0.1191333759E-03      10   10    1         0.3625609338E-03      0.4041328578E-03
          0                47           1            10   10     1       0.1064142957E-03      10   10    1         0.3238527087E-03      0.3598568426E-03
          0                48           1            10   10     1       0.9505314733E-04      10   10    1         0.2892771039E-03      0.3204599114E-03

    ------------------------------------------------
       NWT REQUIRED           48 OUTER ITERATIONS 
       AND A TOTAL OF         54 INNER ITERATIONS.
    ------------------------------------------------

 NO OUTPUT CONTROL FOR STRESS PERIOD    8   TIME STEP    1
 
 SOLVING FOR HEAD 
                                                   Max.-Head-Change                         Max.-Flux-Residual
  Residual-Control   Outer-Iter.   Inner-Iter.     Column Row Layer    Maximum-Head-Change  Column Row Layer    Maximum-Flux-Residual          L2-NORM 
          0                 1           2             4   15     2      -0.1846031120E+00      10   10    2         0.2241100577E+01      0.8797664555E+01
          0                 2           2            10   10     2       0.3890417818E-01      10   10    2         0.9816935430E+00      0.2585571400E+01
          0                 3           2            10   10     2       0.1720033540E-01      10   10    2         0.4315166750E+00      0.1041174982E+01
          0                 4           2             3   15     1       0.1422863654E-01      10   10    2         0.1910336276E+00      0.4362407148E+00
          0                 5           2             3   15     1       0.1280276228E-01      10   10    2         0.8575928173E-01      0.1897670552E+00
          0                 6           2             3   15     1       0.1130499928E-01      10   10    2         0.3953530797E-01      0.9085957745E-01
          0                 7           1            10   10     1       0.1000607709E-01       3   15    1         0.2790176106E-01      0.5312657967E-01
          0                 8           1            10   10     1       0.8878956454E-02      10   10    1         0.2471994331E-01      0.3875379279E-01
          0                 9           1            10   10     1       0.7862780949E-02      10   10    1         0.2192706461E-01      0.3190987007E-01
          0                10           1            10   10     1       0.6955941620E-02      10   10    1         0.1941394277E-01      0.2741102884E-01
                                                   Max.-Head-Change                         Max.-Flux-Residual
  Residual-Control   Outer-Iter.   Inner-Iter.     Column Row Layer    Maximum-Head-Change  Column Row Layer    Maximum-Flux-Residual          L2-NORM 
          0                11           1            10   10     1       0.6150658245E-02      10   10    1         0.1717329563E-01      0.2385431548E-01
          0                12           1            10   10     1       0.5437279634E-02      10   10    1         0.1518447203E-01      0.2084737681E-01
          0                13           1            10   10     1       0.4806064895E-02      10   10    1         0.1342301627E-01      0.1824906994E-01
          0                14           1            10   10     1       0.4247876404E-02      10   10    1         0.1186460651E-01      0.1598668264E-01
          0                15           1            10   10     1       0.3754407588E-02      10   10    1         0.1048656526E-01      0.1401079209E-01
          0                16           1            10   10     1       0.3318216374E-02      10   10    1         0.9268334241E-02      0.1228270762E-01
          0                17           1            10   10     1       0.2932681475E-02      10   10    1         0.8191518818E-02      0.1077023989E-01
          0                18           1            10   10     1       0.2591931786E-02      10   10    1         0.7239763472E-02      0.9445899211E-02
          0                19           1            10   10     1       0.2290770021E-02      10   10    1         0.6398570220E-02      0.8285929323E-02
          0                20           1            10   10     1       0.2024599137E-02      10   10    1         0.5655106942E-02      0.7269684178E-02
                                                   Max.-Head-Change                         Max.-Flux-Residual
  Residual-Control   Outer-Iter.   Inner-Iter.     Column Row Layer    Maximum-Head-Change  Column Row Layer    Maximum-Flux-Residual          L2-NORM 
          0                21           1            10   10     1       0.1789354645E-02      10   10    1         0.4998024365E-02      0.6379169641E-02
          0                22           1            10   10     1       0.1581443630E-02      10   10    1         0.4417288365E-02      0.5598680121E-02
          0                23           1            10   10     1       0.1397690351E-02      10   10    1         0.3904029167E-02      0.4914496168E-02
          0                24           1            10   10     1       0.1235287933E-02      10   10    1         0.3450406928E-02      0.4314627115E-02
          0                25           1            10   10     1       0.1091755588E-02      10   10    1         0.3049492450E-02      0.3788589864E-02
          0                26           1            10   10     1       0.9649007534E-03      10   10    1         0.2695161531E-02      0.3327216948E-02
          0                27           1            10   10     1       0.8527856177E-03      10   10    1         0.2382001510E-02      0.2922489650E-02
          0                28           1            10   10     1       0.7536975269E-03      10   10    1         0.2105228615E-02      0.2567392643E-02
          0                29           1            10   10     1       0.6661228236E-03      10   10    1         0.1860614908E-02      0.2255787258E-02
          0                30           1            10   10     1       0.5887237280E-03      10   10    1         0.1644423705E-02      0.1982300932E-02
                                                   Max.-Head-Change                         Max.-Flux-Residual
  Residual-Control   Outer-Iter.   Inner-Iter.     Column Row Layer    Maximum-Head-Change  Column Row Layer    Maximum-Flux-Residual          L2-NORM 
          0                31           1            10   10     1       0.5203179005E-03      10   10    1         0.1453352498E-02      0.1742230726E-02
          0                32           1            10   10     1       0.4598603818E-03      10   10    1         0.1284482509E-02      0.1531459107E-02
          0                33           1            10   10     1       0.4064276299E-03      10   10    1         0.1135234102E-02      0.1346380420E-02
          0                34           1            10   10     1       0.3592034140E-03      10   10    1         0.1003327378E-02      0.1183836696E-02
          0                35           1            10   10     1       0.3174663415E-03      10   10    1         0.8867473475E-03      0.1041061478E-02
          0                36           1            10   10     1       0.2805788426E-03      10   10    1         0.7837131492E-03      0.9156309610E-03
          0                37           1            10   10     1       0.2479774286E-03      10   10    1         0.6926508463E-03      0.8054211202E-03
          0                38           1            10   10     1       0.2191640846E-03      10   10    1         0.6121693835E-03      0.7085702614E-03
          0                39           1            10   10     1       0.1936986618E-03      10   10    1         0.5410393366E-03      0.6234464202E-03
          0                40           1            10   10     1       0.1711921535E-03      10   10    1         0.4781741325E-03      0.5486185356E-03
                                                   Max.-Head-Change                         Max.-Flux-Residual
  Residual-Control   Outer-Iter.   Inner-Iter.     Column Row Layer    Maximum-Head-Change  Column Row Layer    Maximum-Flux-Residual          L2-NORM 
          0                41           1            10   10     1       0.1513007537E-03      10   10    1         0.4226134510E-03      0.4828318569E-03
          0                42           1            10   10     1       0.1337206030E-03      10   10    1         0.3735085543E-03      0.4249855853E-03
          0                43           1            10   10     1       0.1181831505E-03      10   10    1         0.3301093232E-03      0.3741143815E-03
          0                44           1            10   10     1       0.1044510473E-03      10   10    1         0.2917527965E-03      0.3293709874E-03
          0                45           1            10   10     1       0.9231452394E-04      10   10    1         0.2578530454E-03      0.2900118978E-03

    ------------------------------------------------
       NWT REQUIRED           45 OUTER ITERATIONS 
       AND A TOTAL OF         51 INNER ITERATIONS.
    ------------------------------------------------

 NO OUTPUT CONTROL FOR STRESS PERIOD    8   TIME STEP    2
 
 SOLVING FOR HEAD 
                                                   Max.-Head-Change                         Max.-Flux-Residual
  Residual-Control   Outer-Iter.   Inner-Iter.     Column Row Layer    Maximum-Head-Change  Column Row Layer    Maximum-Flux-Residual          L2-NORM 
          0                 1           2             3   15     2       0.9364037749E-01       3   15    2         0.2162691031E+01      0.8661613320E+01
          0                 2           2             3   15     2       0.4102278980E-01       3   15    2         0.9427525947E+00      0.2503923203E+01
          0                 3           2             3   15     2       0.1000577625E+01       3   15    2         0.4196097935E+00      0.1016716962E+01
          0                 4           2             3   15     2       0.2960143569E+02       3   15    2         0.1234261541E+02      0.1234829884E+02
          0                 5           3             3   15     2       0.7960090475E+03       3   15    2         0.3319110016E+03      0.3319110918E+03
          0                 6           3             3   15     2      -0.1815358632E+03       3   15    2        -0.1444265565E+03      0.1448433023E+03
          0                 7           2             3   15     2       0.1049837171E+02       3   15    2         0.8665590508E+01      0.8752683549E+01
          0                 8           2             3   15     2      -0.2182602312E+00       3   14    1         0.3150294516E+00      0.3795735448E+00
          0                 9           2            10   10     1       0.7348318436E-02       3   14    1         0.1132619587E+00      0.1203378797E+00
          0                10           2            10   10     1       0.6428137680E-02       3   14    1         0.4115496923E-01      0.4652116262E-01
                                                   Max.-Head-Change                         Max.-Flux-Residual
  Residual-Control   Outer-Iter.   Inner-Iter.     Column Row Layer    Maximum-Head-Change  Column Row Layer    Maximum-Flux-Residual          L2-NORM 
          0                11           1            10   10     1       0.5620221899E-02       3   14    1         0.1500180378E-01      0.2163734914E-01
          0                12           1            10   10     1       0.4912559297E-02      10   10    1         0.1259921306E-01      0.1404341044E-01
          0                13           1            10   10     1       0.4293439957E-02      10   10    1         0.1101253306E-01      0.1134817984E-01
          0                14           1            10   10     1       0.3752102627E-02      10   10    1         0.9624531255E-02      0.9763446233E-02
          0                15           1            10   10     1       0.3278913342E-02      10   10    1         0.8410974553E-02      0.8506465981E-02
          0                16           1            10   10     1       0.2865353140E-02      10   10    1         0.7350219023E-02      0.7428903911E-02
          0                17           1            10   10     1       0.2503933998E-02      10   10    1         0.6423147266E-02      0.6490853016E-02
          0                18           1            10   10     1       0.2188093431E-02      10   10    1         0.5612964676E-02      0.5671834804E-02
          0                19           1            10   10     1       0.1912088480E-02      10   10    1         0.4904956507E-02      0.4956298260E-02
          0                20           1            10   10     1       0.1670897002E-02      10   10    1         0.4286247327E-02      0.4331072244E-02
                                                   Max.-Head-Change                         Max.-Flux-Residual
  Residual-Control   Outer-Iter.   Inner-Iter.     Column Row Layer    Maximum-Head-Change  Column Row Layer    Maximum-Flux-Residual          L2-NORM 
          0                21           1            10   10     1       0.1460128788E-02      10   10    1         0.3745578502E-02      0.3784732154E-02
          0                22           1            10   10     1       0.1275946734E-02      10   10    1         0.3273108385E-02      0.3307315844E-02
          0                23           1            10   10     1       0.1114997453E-02      10   10    1         0.2860235378E-02      0.2890124839E-02
          0                24           1            10   10     1       0.9743504343E-03      10   10    1         0.2499442296E-02      0.2525560050E-02
          0                25           1            10   10     1       0.8514447666E-03      10   10    1         0.2184159916E-02      0.2206982697E-02
          0                26           1            10   10     1       0.7440425521E-03      10   10    1         0.1908647554E-02      0.1928591083E-02
          0                27           1            10   10     1       0.6501881743E-03      10   10    1         0.1667888608E-02      0.1685316326E-02
          0                28           1            10   10     1       0.5681726948E-03      10   10    1         0.1457499260E-02      0.1472728738E-02
          0                29           1            10   10     1       0.4965027431E-03      10   10    1         0.1273648660E-02      0.1286957369E-02
          0                30           1            10   10     1       0.4338733219E-03      10   10    1         0.1112989182E-02      0.1124619020E-02
                                                   Max.-Head-Change                         Max.-Flux-Residual
  Residual-Control   Outer-Iter.   Inner-Iter.     Column Row Layer    Maximum-Head-Change  Column Row Layer    Maximum-Flux-Residual          L2-NORM 
          0                31           1            10   10     1       0.3791440481E-03      10   10    1         0.9725954718E-03      0.9827582581E-03
          0                32           1            10   10     1       0.3313183879E-03      10   10    1         0.8499111838E-03      0.8587923946E-03
          0                33           1            10   10     1       0.2895255114E-03      10   10    1         0.7427024307E-03      0.7504630890E-03
          0                34           1            10   10     1       0.2530044364E-03      10   10    1         0.6490171112E-03      0.6557991233E-03
          0                35           1            10   10     1       0.2210901713E-03      10   10    1         0.5671493636E-03      0.5730767501E-03
          0                36           1            10   10     1       0.1932016076E-03      10   10    1         0.4956085060E-03      0.5007881863E-03
          0                37           1            10   10     1       0.1688309394E-03      10   10    1         0.4330918929E-03      0.4376188047E-03
          0                38           1            10   10     1       0.1475344148E-03      10   10    1         0.3784611959E-03      0.3824172075E-03
          0                39           1            10   10     1       0.1289242578E-03      10   10    1         0.3307216763E-03      0.3341781131E-03
          0                40           1            10   10     1       0.1126616071E-03      10   10    1         0.2890040733E-03      0.2920249114E-03
          0                41           1            10   10     1       0.9845034535E-04      10   10    1         0.2525487757E-03      0.2551899224E-03

    ------------------------------------------------
       NWT REQUIRED           41 OUTER ITERATIONS 
       AND A TOTAL OF         53 INNER ITERATIONS.
    ------------------------------------------------

 NO OUTPUT CONTROL FOR STRESS PERIOD    8   TIME STEP    3
 
 SOLVING FOR HEAD 
                                                   Max.-Head-Change                         Max.-Flux-Residual
  Residual-Control   Outer-Iter.   Inner-Iter.     Column Row Layer    Maximum-Head-Change  Column Row Layer    Maximum-Flux-Residual          L2-NORM 
          0                 1           3             3   15     2      -0.6827969872E+03       3   15    2        -0.2875144404E+03      0.3804212394E+03
          0                 2           2             3   15     2       0.2982038400E+02       3   15    2         0.6481942817E+03      0.6486760555E+03
          0                 3           2             3   15     2       0.3548017369E+02       3   15    2         0.1470104516E+02      0.1481024670E+02
          0                 4           2             3   15     2      -0.3418484659E+01       3   15    2        -0.1488233785E+01      0.1828170426E+01
          0                 5           2             3   15     2       0.1978618242E+00       3   15    2         0.8966991812E-01      0.2218993678E+00
          0                 6           2            10   10     1       0.1227355014E-01      10   10    2         0.3393789616E-01      0.8113044218E-01
          0                 7           1            10   10     1       0.1069057049E-01      10   10    1         0.2502280441E-01      0.4061509407E-01
          0                 8           1            10   10     1       0.9269954144E-02      10   10    1         0.2177706025E-01      0.2602310527E-01
          0                 9           1            10   10     1       0.8020115001E-02      10   10    1         0.1887528096E-01      0.2014909325E-01
          0                10           1            10   10     1       0.6931000809E-02      10   10    1         0.1632695466E-01      0.1683555287E-01
                                                   Max.-Head-Change                         Max.-Flux-Residual
  Residual-Control   Outer-Iter.   Inner-Iter.     Column Row Layer    Maximum-Head-Change  Column Row Layer    Maximum-Flux-Residual          L2-NORM 
          0                11           1            10   10     1       0.5986410009E-02      10   10    1         0.1410830359E-01      0.1438919746E-01
          0                12           1            10   10     1       0.5169087482E-02      10   10    1         0.1218491071E-01      0.1237885079E-01
          0                13           1            10   10     1       0.4462717490E-02      10   10    1         0.1052103002E-01      0.1067142613E-01
          0                14           1            10   10     1       0.3852598572E-02      10   10    1         0.9083181761E-02      0.9206436128E-02
          0                15           1            10   10     1       0.3325771847E-02      10   10    1         0.7841325624E-02      0.7945033943E-02
          0                16           1            10   10     1       0.2870934359E-02      10   10    1         0.6769034882E-02      0.6857424741E-02
          0                17           1            10   10     1       0.2478278501E-02      10   10    1         0.5843282179E-02      0.5919096849E-02
          0                18           1            10   10     1       0.2139316125E-02      10   10    1         0.5044096269E-02      0.5109331741E-02
          0                19           1            10   10     1       0.1846710508E-02      10   10    1         0.4354196893E-02      0.4410418909E-02
          0                20           1            10   10     1       0.1594124278E-02      10   10    1         0.3758649687E-02      0.3807142440E-02
                                                   Max.-Head-Change                         Max.-Flux-Residual
  Residual-Control   Outer-Iter.   Inner-Iter.     Column Row Layer    Maximum-Head-Change  Column Row Layer    Maximum-Flux-Residual          L2-NORM 
          0                21           1            10   10     1       0.1376085067E-02      10   10    1         0.3244555302E-02      0.3286398295E-02
          0                22           1            10   10     1       0.1187868223E-02      10   10    1         0.2800775394E-02      0.2836887782E-02
          0                23           1            10   10     1       0.1025394980E-02      10   10    1         0.2417693648E-02      0.2448863480E-02
          0                24           1            10   10     1       0.8851443062E-03      10   10    1         0.2087008414E-02      0.2113913527E-02
          0                25           1            10   10     1       0.7640767063E-03      10   10    1         0.1801553247E-02      0.1824777720E-02
          0                26           1            10   10     1       0.6595683914E-03      10   10    1         0.1555141790E-02      0.1575189504E-02
          0                27           1            10   10     1       0.5693544340E-03      10   10    1         0.1342433789E-02      0.1359739357E-02
          0                28           1            10   10     1       0.4914796947E-03      10   10    1         0.1158819395E-02      0.1173757891E-02
          0                29           1            10   10     1       0.4242564495E-03      10   10    1         0.1000319269E-02      0.1013214510E-02
          0                30           1            10   10     1       0.3662278164E-03      10   10    1         0.8634983536E-03      0.8746297593E-03
                                                   Max.-Head-Change                         Max.-Flux-Residual
  Residual-Control   Outer-Iter.   Inner-Iter.     Column Row Layer    Maximum-Head-Change  Column Row Layer    Maximum-Flux-Residual          L2-NORM 
          0                31           1            10   10     1       0.3161361814E-03      10   10    1         0.7453914266E-03      0.7550004904E-03
          0                32           1            10   10     1       0.2728959430E-03      10   10    1         0.6434388403E-03      0.6517336073E-03
          0                33           1            10   10     1       0.2355699862E-03      10   10    1         0.5554310485E-03      0.5625914328E-03
          0                34           1            10   10     1       0.2033493715E-03      10   10    1         0.4794607204E-03      0.4856417162E-03
          0                35           1            10   10     1       0.1755358042E-03      10   10    1         0.4138814047E-03      0.4192170694E-03
          0                36           1            10   10     1       0.1515265001E-03      10   10    1         0.3572718474E-03      0.3618777531E-03
          0                37           1            10   10     1       0.1308011231E-03      10   10    1         0.3084051895E-03      0.3123812532E-03
          0                38           1            10   10     1       0.1129105058E-03      10   10    1         0.2662223784E-03      0.2696544441E-03
          0                39           1            10   10     1       0.9746691798E-04      10   10    1         0.2298092159E-03      0.2327723643E-03

    ------------------------------------------------
       NWT REQUIRED           39 OUTER ITERATIONS 
       AND A TOTAL OF         46 INNER ITERATIONS.
    ------------------------------------------------

 NO OUTPUT CONTROL FOR STRESS PERIOD    8   TIME STEP    4
 
 SOLVING FOR HEAD 
                                                   Max.-Head-Change                         Max.-Flux-Residual
  Residual-Control   Outer-Iter.   Inner-Iter.     Column Row Layer    Maximum-Head-Change  Column Row Layer    Maximum-Flux-Residual          L2-NORM 
          0                 1           2             3   15     2      -0.2720506264E+02       3   15    2        -0.1127650069E+02      0.1731790573E+02
          0                 2           2             3   15     2       0.2622796190E+01       3   15    2         0.1127650102E+01      0.3003994905E+01
          0                 3           2             3   15     2      -0.1512376671E+00      10   10    2         0.3612154979E+00      0.1044899813E+01
          0                 4           2            10   10     1       0.1796993688E-01      10   10    2         0.1602644677E+00      0.4234392033E+00
          0                 5           2            10   10     1       0.1590557735E-01      10   10    2         0.7261695786E-01      0.1765784802E+00
          0                 6           2            10   10     1       0.1380854478E-01      10   10    2         0.3416116516E-01      0.7820315849E-01
          0                 7           1            10   10     1       0.1187543756E-01      10   10    1         0.2556051281E-01      0.4028469594E-01
          0                 8           1            10   10     1       0.1016508635E-01      10   10    1         0.2196275018E-01      0.2614099070E-01
          0                 9           1            10   10     1       0.8680517900E-02      10   10    1         0.1879123133E-01      0.2012295627E-01
          0                10           1            10   10     1       0.7403901167E-02      10   10    1         0.1604325082E-01      0.1660712839E-01
                                                   Max.-Head-Change                         Max.-Flux-Residual
  Residual-Control   Outer-Iter.   Inner-Iter.     Column Row Layer    Maximum-Head-Change  Column Row Layer    Maximum-Flux-Residual          L2-NORM 
          0                11           1            10   10     1       0.6311200615E-02      10   10    1         0.1368226505E-01      0.1400473084E-01
          0                12           1            10   10     1       0.5378107104E-02      10   10    1         0.1166230373E-01      0.1188737588E-01
          0                13           1            10   10     1       0.4582250615E-02      10   10    1         0.9937774156E-02      0.1011188069E-01
          0                14           1            10   10     1       0.3903854465E-02      10   10    1         0.8467049347E-02      0.8608527088E-02
          0                15           1            10   10     1       0.3325759200E-02      10   10    1         0.7213460010E-02      0.7331183476E-02
          0                16           1            10   10     1       0.2833211766E-02      10   10    1         0.6145244707E-02      0.6244352516E-02
          0                17           1            10   10     1       0.2413585708E-02      10   10    1         0.5235119569E-02      0.5319044123E-02
          0                18           1            10   10     1       0.2056099394E-02      10   10    1         0.4459743653E-02      0.4531020769E-02
          0                19           1            10   10     1       0.1751557156E-02      10   10    1         0.3799190633E-02      0.3859816612E-02
          0                20           1            10   10     1       0.1492120610E-02      10   10    1         0.3236467188E-02      0.3288072794E-02
                                                   Max.-Head-Change                         Max.-Flux-Residual
  Residual-Control   Outer-Iter.   Inner-Iter.     Column Row Layer    Maximum-Head-Change  Column Row Layer    Maximum-Flux-Residual          L2-NORM 
          0                21           1            10   10     1       0.1271110322E-02      10   10    1         0.2757089024E-02      0.2801033314E-02
          0                22           1            10   10     1       0.1082835316E-02      10   10    1         0.2348713780E-02      0.2386145804E-02
          0                23           1            10   10     1       0.9224471705E-03      10   10    1         0.2000825730E-02      0.2032710319E-02
          0                24           1            10   10     1       0.7858154410E-03      10   10    1         0.1704466075E-02      0.1731623752E-02
          0                25           1            10   10     1       0.6694214071E-03      10   10    1         0.1452002704E-02      0.1475136993E-02
          0                26           1            10   10     1       0.5702675071E-03      10   10    1         0.1236933840E-02      0.1256641443E-02
          0                27           1            10   10     1       0.4858001607E-03      10   10    1         0.1053720694E-02      0.1070509642E-02
          0                28           1            10   10     1       0.4138440169E-03      10   10    1         0.8976448498E-03      0.9119468717E-03
          0                29           1            10   10     1       0.3525459322E-03      10   10    1         0.7646867696E-03      0.7768701032E-03
          0                30           1            10   10     1       0.3003272474E-03      10   10    1         0.6514222803E-03      0.6618014598E-03
                                                   Max.-Head-Change                         Max.-Flux-Residual
  Residual-Control   Outer-Iter.   Inner-Iter.     Column Row Layer    Maximum-Head-Change  Column Row Layer    Maximum-Flux-Residual          L2-NORM 
          0                31           1            10   10     1       0.2558431327E-03      10   10    1         0.5549343917E-03      0.5637759284E-03
          0                32           1            10   10     1       0.2179479529E-03      10   10    1         0.4727381741E-03      0.4802720168E-03
          0                33           1            10   10     1       0.1856657619E-03      10   10    1         0.4027167619E-03      0.4091344918E-03
          0                34           1            10   10     1       0.1581651711E-03      10   10    1         0.3430668378E-03      0.3485327968E-03
          0                35           1            10   10     1       0.1347379349E-03      10   10    1         0.2922521892E-03      0.2969095111E-03
          0                36           1            10   10     1       0.1147807134E-03      10   10    1         0.2489641455E-03      0.2529324754E-03
          0                37           1            10   10     1       0.9777953153E-04      10   10    1         0.2120878750E-03      0.2154705195E-03

    ------------------------------------------------
       NWT REQUIRED           37 OUTER ITERATIONS 
       AND A TOTAL OF         43 INNER ITERATIONS.
    ------------------------------------------------

 OUTPUT CONTROL FOR STRESS PERIOD    8   TIME STEP    5
    PRINT BUDGET
    SAVE BUDGET

  HEAD DEP BOUNDS   PERIOD    8   STEP     5
 BOUNDARY      1   LAYER   1   ROW    13   COL     1   RATE   -0.288149    
 BOUNDARY      2   LAYER   1   ROW    14   COL     9   RATE    0.205900    



 STREAM LISTING     PERIOD      8   STEP        5

 LAYER ROW COL. STREAM  RCH.  FLOW INTO     FLOW TO   FLOW OUT OF   OVRLND.     DIRECT     STREAM       STREAM     STREAM     STREAM   STREAMBED  STREAMBED
                SEG.NO.  NO.  STRM. RCH.    AQUIFER    STRM. RCH.    RUNOFF     PRECIP       ET          HEAD       DEPTH      WIDTH   CONDCTNC.   GRADIENT

   1    1    1     1     1    2.5000E+01  1.1857E+00   2.3814E+01  0.000E+00  0.000E+00  0.000E+00  1.09422E+03  1.171E+00  1.294E+01  5.825E-01  6.785E-01
   1    2    2     1     2    2.3814E+01  2.6412E+00   2.1173E+01  0.000E+00  0.000E+00  0.000E+00  1.08920E+03  1.142E+00  1.255E+01  8.784E-01  1.002E+00
   1    3    3     1     3    2.1173E+01  2.9273E+00   1.8246E+01  0.000E+00  0.000E+00  0.000E+00  1.08351E+03  1.095E+00  1.191E+01  7.148E-01  1.365E+00
   1    3    4     1     4    1.8246E+01  2.4876E+00   1.5758E+01  0.000E+00  0.000E+00  0.000E+00  1.07846E+03  1.049E+00  1.107E+01  6.143E-01  1.350E+00
   1    4    5     2     1    5.7583E+00  2.6731E+00   3.0851E+00  0.000E+00  0.000E+00  0.000E+00  1.07236E+03  4.271E-01  1.200E+01  7.800E-01  1.142E+00
   1    5    6     2     2    3.0851E+00  1.9641E+00   1.1211E+00  0.000E+00  0.000E+00  0.000E+00  1.06678E+03  2.734E-01  1.200E+01  6.000E-01  1.091E+00
   1    6    6     2     3    1.1211E+00  1.1211E+00   0.0000E+00  0.000E+00  0.000E+00  0.000E+00  1.06183E+03  4.218E-02  1.200E+01  6.000E-01  1.014E+00
   1    7    6     2     4    0.0000E+00  0.0000E+00   0.0000E+00  0.000E+00  0.000E+00  0.000E+00  1.05708E+03  0.000E+00  1.200E+01  6.000E-01  1.000E+00
   1    8    6     2     5    0.0000E+00  0.0000E+00   0.0000E+00  0.000E+00  0.000E+00  0.000E+00  1.05236E+03  0.000E+00  1.200E+01  6.000E-01  1.000E+00
   1    3    5     3     1    1.0000E+01  1.4366E+00   8.5634E+00  0.000E+00  0.000E+00  0.000E+00  1.07555E+03  1.909E+00  9.636E+00  7.227E-01  9.939E-01
   1    3    6     3     2    8.5634E+00  1.0500E+00   7.5134E+00  0.000E+00  0.000E+00  0.000E+00  1.07264E+03  1.727E+00  8.909E+00  6.682E-01  7.857E-01
   1    3    7     3     3    7.5134E+00  6.4841E-01   6.8650E+00  0.000E+00  0.000E+00  0.000E+00  1.06987E+03  1.555E+00  8.218E+00  5.547E-01  5.844E-01
   1    4    8     3     4    6.8650E+00  1.4323E+00   5.4327E+00  0.000E+00  0.000E+00  0.000E+00  1.06682E+03  1.364E+00  7.455E+00  6.709E-01  1.067E+00
   1    5    8     3     5    5.4327E+00  1.5166E+00   3.9161E+00  0.000E+00  0.000E+00  0.000E+00  1.06362E+03  1.164E+00  6.655E+00  4.991E-01  1.519E+00
   1    6    8     3     6    3.9161E+00  5.5980E-01   3.3563E+00  0.000E+00  0.000E+00  0.000E+00  1.06158E+03  1.036E+00  6.145E+00  1.844E-01  1.518E+00
   1    5   10     4     1    1.0000E+01  9.0525E-01   9.0947E+00  0.000E+00  0.000E+00  0.000E+00  1.07835E+03  6.210E-01  1.000E+01  2.500E-01  1.207E+00
   1    5    9     4     2    9.0947E+00  1.7835E+00   7.3113E+00  0.000E+00  0.000E+00  0.000E+00  1.07148E+03  5.670E-01  1.000E+01  5.000E-01  1.189E+00
   1    6    8     4     3    7.3113E+00  1.2257E+00   6.0855E+00  0.000E+00  0.000E+00  0.000E+00  1.06368E+03  5.021E-01  1.000E+01  3.500E-01  1.167E+00
   1    6    8     5     1    9.4418E+00  2.9346E-01   9.1484E+00  0.000E+00  0.000E+00  0.000E+00  1.05865E+03  6.547E-01  1.448E+01  5.792E-01  1.689E-01
   1    7    7     5     2    9.1484E+00  1.3424E+00   7.8060E+00  0.000E+00  0.000E+00  0.000E+00  1.05413E+03  6.339E-01  1.370E+01  6.850E-01  6.532E-01
   1    8    7     5     3    7.8060E+00  1.0002E+00   6.8058E+00  0.000E+00  0.000E+00  0.000E+00  1.04985E+03  6.017E-01  1.253E+01  4.386E-01  7.602E-01
   1    8    6     5     4    6.8058E+00  1.0002E+00   5.8056E+00  0.000E+00  0.000E+00  0.000E+00  1.04682E+03  5.715E-01  1.147E+01  2.868E-01  1.163E+00
   1    9    6     6     1    5.8056E+00  1.9497E+00   3.8559E+00  0.000E+00  0.000E+00  0.000E+00  1.04318E+03  4.554E-01  1.200E+01  6.000E-01  1.083E+00
   1   10    7     6     2    3.8559E+00  1.2592E+00   2.5967E+00  0.000E+00  0.000E+00  0.000E+00  1.03854E+03  3.574E-01  1.200E+01  6.000E-01  6.995E-01
   1   11    7     6     3    2.5967E+00  9.3007E-01   1.6666E+00  0.000E+00  0.000E+00  0.000E+00  1.03392E+03  2.787E-01  1.200E+01  6.000E-01  5.167E-01
   1   12    7     6     4    1.6666E+00  4.5751E-01   1.2091E+00  0.000E+00  0.000E+00  0.000E+00  1.02931E+03  2.201E-01  1.200E+01  6.000E-01  2.542E-01
   1   13    7     6     5    1.2091E+00 -7.9729E-01   2.0064E+00  0.000E+00  0.000E+00  0.000E+00  1.02614E+03  2.353E-01  1.200E+01  2.400E-01 -1.107E+00
   1   14    9     7     1    1.5000E+02  1.6002E+00   1.4840E+02  0.000E+00  0.000E+00  0.000E+00  1.03987E+03  2.287E+00  5.529E+01  5.593E+00  9.537E-02
   1   13    8     7     2    1.4840E+02  1.6232E+00   1.4678E+02  0.000E+00  0.000E+00  0.000E+00  1.03478E+03  2.278E+00  5.525E+01  6.147E+00  8.802E-02
   1   13    7     7     3    1.4678E+02  1.2490E+00   1.4553E+02  0.000E+00  0.000E+00  0.000E+00  1.02969E+03  2.271E+00  5.522E+01  5.585E+00  7.455E-02
   1   13    6     8     1    1.4753E+02  4.0656E-02   1.4749E+02  0.000E+00  0.000E+00  0.000E+00  1.02467E+03  2.799E+00  4.059E+01  4.136E+00  3.276E-03
   1   13    5     8     2    1.4749E+02 -6.4940E-01   1.4814E+02  0.000E+00  0.000E+00  0.000E+00  1.01843E+03  2.801E+00  4.062E+01  4.139E+00 -5.230E-02
   1   13    4     8     3    1.4814E+02 -1.6303E+00   1.4977E+02  0.000E+00  0.000E+00  0.000E+00  1.01218E+03  2.809E+00  4.074E+01  4.151E+00 -1.309E-01
   1   13    3     8     4    1.4977E+02 -2.4126E+00   1.5219E+02  0.000E+00  0.000E+00  0.000E+00  1.00595E+03  2.824E+00  4.094E+01  4.172E+00 -1.927E-01
   1   13    2     8     5    1.5219E+02 -2.5052E+00   1.5469E+02  0.000E+00  0.000E+00  0.000E+00  9.99716E+02  2.841E+00  4.119E+01  4.198E+00 -1.989E-01
   1   13    1     8     6    1.5469E+02 -2.1552E+00   1.5685E+02  0.000E+00  0.000E+00  0.000E+00  9.94732E+02  2.857E+00  4.143E+01  2.533E+00 -2.836E-01



 UBDSV3 SAVING "           GW ET" ON UNIT  61 AT TIME STEP  5, STRESS PERIOD   8
 UBDSV3 SAVING "    UZF RECHARGE" ON UNIT  61 AT TIME STEP  5, STRESS PERIOD   8
 UBDSV3 SAVING " SURFACE LEAKAGE" ON UNIT  61 AT TIME STEP  5, STRESS PERIOD   8
 UBDSV3 SAVING "       HORT+DUNN" ON UNIT  61 AT TIME STEP  5, STRESS PERIOD   8
 UBDSV3 SAVING "  STORAGE CHANGE" ON UNIT  61 AT TIME STEP  5, STRESS PERIOD   8


UNSATURATED ZONE PACKAGE VOLUMETRIC BUDGET FOR  TIME STEP     5 STRESS PERIOD    8
  ------------------------------------------------------------------------------



     CUMULATIVE VOLUMES      L**3       RATES FOR THIS TIME STEP      L**3/T
     ------------------                 ------------------------

           IN:                                      IN:
           ---                                      ---
        INFILTRATION =  1290647757.4385          INFILTRATION =          42.3750

          OUT:                                     OUT:
          ----                                     ----
              UZF ET =        8040.5740                UZF ET =       0.0000E+00
        UZF RECHARGE =   722235179.4677          UZF RECHARGE =          81.7561

            IN - OUT =   568404537.3968              IN - OUT =         -39.3811

          STORAGE:                                 STORAGE:
          --------                                 --------
      STORAGE CHANGE =   568821648.7173        STORAGE CHANGE =         -39.3811

 PERCENT DISCREPANCY IS DIFFERENCE BETWEEN IN-OUT MINUS CHANGE IN STORAGE
 DIVIDED BY THE AVERAGE OF IN AND OUT TIMES 100

 PERCENT DISCREPANCY =          -0.01     PERCENT DISCREPANCY =           0.00






1
  VOLUMETRIC BUDGET FOR ENTIRE MODEL AT END OF TIME STEP    5, STRESS PERIOD   8
  ------------------------------------------------------------------------------

     CUMULATIVE VOLUMES      L**3       RATES FOR THIS TIME STEP      L**3/T
     ------------------                 ------------------------

           IN:                                      IN:
           ---                                      ---
             STORAGE     =    64079080.0000               STORAGE     =           5.8992
       CONSTANT HEAD     =           0.0000         CONSTANT HEAD     =           0.0000
               WELLS     =           0.0000                 WELLS     =           0.0000
     HEAD DEP BOUNDS     =     3914217.0000       HEAD DEP BOUNDS     =           0.2059
      STREAM LEAKAGE     =   750744960.0000        STREAM LEAKAGE     =          38.3039
        UZF RECHARGE     =   722235264.0000          UZF RECHARGE     =          81.7561
               GW ET     =           0.0000                 GW ET     =           0.0000
     SURFACE LEAKAGE     =           0.0000       SURFACE LEAKAGE     =           0.0000

                TOTAL IN =  1540973568.0000                  TOTAL IN =         126.1650

          OUT:                                     OUT:
          ----                                     ----
             STORAGE     =   600474496.0000               STORAGE     =          91.3351
       CONSTANT HEAD     =           0.0000         CONSTANT HEAD     =           0.0000
               WELLS     =   289079936.0000                 WELLS     =           0.0000
     HEAD DEP BOUNDS     =     5354821.5000       HEAD DEP BOUNDS     =           0.2881
      STREAM LEAKAGE     =   154092096.0000        STREAM LEAKAGE     =          10.1500
        UZF RECHARGE     =           0.0000          UZF RECHARGE     =           0.0000
               GW ET     =   446816288.0000                 GW ET     =          24.3915
     SURFACE LEAKAGE     =    45145140.0000       SURFACE LEAKAGE     =           0.0000

               TOTAL OUT =  1540962688.0000                 TOTAL OUT =         126.1647

                IN - OUT =       10880.0000                  IN - OUT =       2.5940E-04

     PERCENT DISCREPANCY =           0.00         PERCENT DISCREPANCY =           0.00






         TIME SUMMARY AT END OF TIME STEP    5 IN STRESS PERIOD    8
                    SECONDS     MINUTES      HOURS       DAYS        YEARS
                    -----------------------------------------------------------
   TIME STEP LENGTH 1.21100E+05  2018.3      33.639      1.4016     3.83743E-03
 STRESS PERIOD TIME 5.04972E+05  8416.2      140.27      5.8446     1.60016E-02
         TOTAL TIME 1.89010E+07 3.15016E+05  5250.3      218.76     0.59894    
1
 
 SOLVING FOR HEAD 
                                                   Max.-Head-Change                         Max.-Flux-Residual
  Residual-Control   Outer-Iter.   Inner-Iter.     Column Row Layer    Maximum-Head-Change  Column Row Layer    Maximum-Flux-Residual          L2-NORM 
          0                 1           2             3   15     2      -0.1032173536E+01       4    7    1         0.1995904554E+01      0.9055109803E+01
          0                 2           2             3   15     2       0.1007220605E+00      10   10    2         0.8192327276E+00      0.2681356015E+01
          0                 3           2            10   10     1       0.2264331411E-01      10   10    2         0.3591939412E+00      0.1055374742E+01
          0                 4           2            10   10     1       0.2063988868E-01      10   10    2         0.1595535533E+00      0.4287330283E+00
          0                 5           2            10   10     1       0.1803542634E-01      10   10    2         0.7258396250E-01      0.1785737107E+00
          0                 6           2            10   10     1       0.1544973310E-01      10   10    2         0.3441827220E-01      0.7915658907E-01
          0                 7           2            10   10     1       0.1310604478E-01      10   10    1         0.2596270297E-01      0.4081112080E-01
          0                 8           1            10   10     1       0.1106336535E-01      10   10    1         0.2200376850E-01      0.2631764138E-01
          0                 9           1            10   10     1       0.9315728434E-02      10   10    1         0.1856556231E-01      0.1999664498E-01
          0                10           1            10   10     1       0.7834131500E-02      10   10    1         0.1562907411E-01      0.1626059738E-01
                                                   Max.-Head-Change                         Max.-Flux-Residual
  Residual-Control   Outer-Iter.   Inner-Iter.     Column Row Layer    Maximum-Head-Change  Column Row Layer    Maximum-Flux-Residual          L2-NORM 
          0                11           1            10   10     1       0.6583849996E-02      10   10    1         0.1314176849E-01      0.1351173708E-01
          0                12           1            10   10     1       0.5531241374E-02      10   10    1         0.1104372193E-01      0.1130339279E-01
          0                13           1            10   10     1       0.4646115940E-02      10   10    1         0.9277780373E-02      0.9477614401E-02
          0                14           1            10   10     1       0.3902283170E-02      10   10    1         0.7792993598E-02      0.7953728732E-02
          0                15           1            10   10     1       0.3277386197E-02      10   10    1         0.6545297306E-02      0.6677388293E-02
          0                16           1            10   10     1       0.2752493037E-02      10   10    1         0.5497134284E-02      0.5606849838E-02
          0                17           1            10   10     1       0.2311636690E-02      10   10    1         0.4616725033E-02      0.4708347847E-02
          0                18           1            10   10     1       0.1941378553E-02      10   10    1         0.3877277522E-02      0.3954001859E-02
          0                19           1            10   10     1       0.1630419983E-02      10   10    1         0.3256246738E-02      0.3320585822E-02
          0                20           1            10   10     1       0.1369266685E-02      10   10    1         0.2734679655E-02      0.2788671720E-02
                                                   Max.-Head-Change                         Max.-Flux-Residual
  Residual-Control   Outer-Iter.   Inner-Iter.     Column Row Layer    Maximum-Head-Change  Column Row Layer    Maximum-Flux-Residual          L2-NORM 
          0                21           1            10   10     1       0.1149942780E-02      10   10    1         0.2296650789E-02      0.2341976730E-02
          0                22           1            10   10     1       0.9657489287E-03      10   10    1         0.1928781967E-02      0.1966840203E-02
          0                23           1            10   10     1       0.8110584371E-03      10   10    1         0.1619836344E-02      0.1651795138E-02
          0                24           1            10   10     1       0.6811456874E-03      10   10    1         0.1360376290E-02      0.1387214663E-02
          0                25           1            10   10     1       0.5720419169E-03      10   10    1         0.1142475578E-02      0.1165014698E-02
          0                26           1            10   10     1       0.4804140331E-03      10   10    1         0.9594774547E-03      0.9784060570E-03
          0                27           1            10   10     1       0.4034628128E-03      10   10    1         0.8057913715E-03      0.8216879827E-03
          0                28           1            10   10     1       0.3388373977E-03      10   10    1         0.6767222340E-03      0.6900730655E-03
          0                29           1            10   10     1       0.2845634796E-03      10   10    1         0.5683269834E-03      0.5795393810E-03
          0                30           1            10   10     1       0.2389829887E-03      10   10    1         0.4772941440E-03      0.4867105124E-03
                                                   Max.-Head-Change                         Max.-Flux-Residual
  Residual-Control   Outer-Iter.   Inner-Iter.     Column Row Layer    Maximum-Head-Change  Column Row Layer    Maximum-Flux-Residual          L2-NORM 
          0                31           1            10   10     1       0.2007034393E-03      10   10    1         0.4008426601E-03      0.4087514519E-03
          0                32           1            10   10     1       0.1685553891E-03      10   10    1         0.3366369359E-03      0.3432792593E-03
          0                33           1            10   10     1       0.1415567130E-03      10   10    1         0.2827154840E-03      0.2882935816E-03
          0                34           1            10   10     1       0.1188826005E-03      10   10    1         0.2374310017E-03      0.2421170526E-03
          0                35           1            10   10     1       0.9984035723E-04      10   10    1         0.1994000465E-03      0.2033358768E-03

    ------------------------------------------------
       NWT REQUIRED           35 OUTER ITERATIONS 
       AND A TOTAL OF         42 INNER ITERATIONS.
    ------------------------------------------------

 NO OUTPUT CONTROL FOR STRESS PERIOD    8   TIME STEP    6
 
 SOLVING FOR HEAD 
                                                   Max.-Head-Change                         Max.-Flux-Residual
  Residual-Control   Outer-Iter.   Inner-Iter.     Column Row Layer    Maximum-Head-Change  Column Row Layer    Maximum-Flux-Residual          L2-NORM 
          0                 1           2            10   10     2       0.1185495132E+00       4    7    1         0.1992575135E+01      0.8876459037E+01
          0                 2           2            10   10     2       0.5187168062E-01      10   10    2         0.8147819561E+00      0.2546773635E+01
          0                 3           2            10   10     1       0.2624523330E-01      10   10    2         0.3570409450E+00      0.9774114470E+00
          0                 4           2            10   10     1       0.2361331573E-01      10   10    2         0.1588245532E+00      0.3901636706E+00
          0                 5           2            10   10     1       0.2035073413E-01      10   10    2         0.7257676419E-01      0.1612825528E+00
          0                 6           2            10   10     1       0.1718475580E-01      10   10    2         0.3470814077E-01      0.7238803550E-01
          0                 7           2            10   10     1       0.1436492786E-01      10   10    1         0.2621366030E-01      0.3868883010E-01
          0                 8           1            10   10     1       0.1194605581E-01      10   10    1         0.2189088453E-01      0.2569415780E-01
          0                 9           1            10   10     1       0.9908180597E-02      10   10    1         0.1819561913E-01      0.1958892849E-01
          0                10           1            10   10     1       0.8206677282E-02      10   10    1         0.1508772934E-01      0.1576372375E-01
                                                   Max.-Head-Change                         Max.-Flux-Residual
  Residual-Control   Outer-Iter.   Inner-Iter.     Column Row Layer    Maximum-Head-Change  Column Row Layer    Maximum-Flux-Residual          L2-NORM 
          0                11           1            10   10     1       0.6792529118E-02      10   10    1         0.1249508253E-01      0.1291141319E-01
          0                12           1            10   10     1       0.5619981596E-02      10   10    1         0.1034125118E-01      0.1063739414E-01
          0                13           1            10   10     1       0.4648947545E-02      10   10    1         0.8555803513E-02      0.8782768257E-02
          0                14           1            10   10     1       0.3845305761E-02      10   10    1         0.7077378643E-02      0.7257954641E-02
          0                15           1            10   10     1       0.3180419900E-02      10   10    1         0.5853888690E-02      0.6000287508E-02
          0                16           1            10   10     1       0.2630427037E-02      10   10    1         0.4841677703E-02      0.4961514675E-02
          0                17           1            10   10     1       0.2175514219E-02      10   10    1         0.4004391795E-02      0.4103009575E-02
          0                18           1            10   10     1       0.1799261985E-02      10   10    1         0.3311857674E-02      0.3393212638E-02
          0                19           1            10   10     1       0.1488076389E-02      10   10    1         0.2739074603E-02      0.2806220356E-02
          0                20           1            10   10     1       0.1230708465E-02      10   10    1         0.2265346010E-02      0.2320836766E-02
                                                   Max.-Head-Change                         Max.-Flux-Residual
  Residual-Control   Outer-Iter.   Inner-Iter.     Column Row Layer    Maximum-Head-Change  Column Row Layer    Maximum-Flux-Residual          L2-NORM 
          0                21           1            10   10     1       0.1017852165E-02      10   10    1         0.1873546363E-02      0.1919421733E-02
          0                22           1            10   10     1       0.8418098289E-03      10   10    1         0.1549508402E-02      0.1587441622E-02
          0                23           1            10   10     1       0.6962146569E-03      10   10    1         0.1281513586E-02      0.1312882829E-02
          0                24           1            10   10     1       0.5758008098E-03      10   10    1         0.1059869476E-02      0.1085948134E-02
          0                25           1            10   10     1       0.4762131137E-03      10   10    1         0.8765596967E-03      0.8981651730E-03
          0                26           1            10   10     1       0.3938496066E-03      10   10    1         0.7249542218E-03      0.7426995127E-03
          0                27           1            10   10     1       0.3257312864E-03      10   10    1         0.5995696677E-03      0.6142446348E-03
          0                28           1            10   10     1       0.2693943787E-03      10   10    1         0.4958710074E-03      0.5080079151E-03
          0                29           1            10   10     1       0.2228012297E-03      10   10    1         0.4101075610E-03      0.4204950398E-03
          0                30           1            10   10     1       0.1842666065E-03      10   10    1         0.3391773434E-03      0.3479898901E-03
                                                   Max.-Head-Change                         Max.-Flux-Residual
  Residual-Control   Outer-Iter.   Inner-Iter.     Column Row Layer    Maximum-Head-Change  Column Row Layer    Maximum-Flux-Residual          L2-NORM 
          0                31           1            10   10     1       0.1523967458E-03      10   10    1         0.2805148723E-03      0.2873833947E-03
          0                32           1            10   10     1       0.1260389415E-03      10   10    1         0.2319983781E-03      0.2376770371E-03
          0                33           1            10   10     1       0.1042398560E-03      10   10    1         0.1918730619E-03      0.1973278066E-03
          0                34           1            10   10     1       0.8621103514E-04      10   10    1         0.1586876263E-03      0.1633981059E-03

    ------------------------------------------------
       NWT REQUIRED           34 OUTER ITERATIONS 
       AND A TOTAL OF         41 INNER ITERATIONS.
    ------------------------------------------------

 NO OUTPUT CONTROL FOR STRESS PERIOD    8   TIME STEP    7
 
 SOLVING FOR HEAD 
                                                   Max.-Head-Change                         Max.-Flux-Residual
  Residual-Control   Outer-Iter.   Inner-Iter.     Column Row Layer    Maximum-Head-Change  Column Row Layer    Maximum-Flux-Residual          L2-NORM 
          0                 1           2            10   10     2       0.1296755204E+00       4    7    1         0.1989594480E+01      0.8626677420E+01
          0                 2           2            10   10     2       0.5669514394E-01      10   10    2         0.8099398049E+00      0.2393908507E+01
          0                 3           2            10   10     1       0.3030969679E-01      10   10    2         0.3547297161E+00      0.9081997095E+00
          0                 4           2            10   10     1       0.2689235563E-01      10   10    2         0.1580629537E+00      0.3605440359E+00
          0                 5           2            10   10     1       0.2283672506E-01      10   10    2         0.7258576221E-01      0.1493648129E+00
          0                 6           2            10   10     1       0.1899003721E-01      10   10    2         0.3502225987E-01      0.6819230789E-01
          0                 7           2            10   10     1       0.1562578020E-01      10   10    1         0.2629120963E-01      0.3747162888E-01
          0                 8           1            10   10     1       0.1278805746E-01      10   10    1         0.2161119805E-01      0.2522283966E-01
          0                 9           1            10   10     1       0.1043621029E-01      10   10    1         0.1767704262E-01      0.1911422135E-01
          0                10           1            10   10     1       0.8504322430E-02      10   10    1         0.1442203606E-01      0.1516519717E-01
                                                   Max.-Head-Change                         Max.-Flux-Residual
  Residual-Control   Outer-Iter.   Inner-Iter.     Column Row Layer    Maximum-Head-Change  Column Row Layer    Maximum-Flux-Residual          L2-NORM 
          0                11           1            10   10     1       0.6924678947E-02      10   10    1         0.1175059525E-01      0.1222117793E-01
          0                12           1            10   10     1       0.5636145827E-02      10   10    1         0.9567233592E-02      0.9903078880E-02
          0                13           1            10   10     1       0.4586394240E-02      10   10    1         0.7786663300E-02      0.8041978686E-02
          0                14           1            10   10     1       0.3731739496E-02      10   10    1         0.6336235862E-02      0.6536747693E-02
          0                15           1            10   10     1       0.3036164592E-02      10   10    1         0.5155448283E-02      0.5315590318E-02
          0                16           1            10   10     1       0.2470163108E-02      10   10    1         0.4194477776E-02      0.4323504578E-02
          0                17           1            10   10     1       0.2009642225E-02      10   10    1         0.3412533323E-02      0.3516971568E-02
          0                18           1            10   10     1       0.1634963528E-02      10   10    1         0.2776318816E-02      0.2861056496E-02
          0                19           1            10   10     1       0.1330133998E-02      10   10    1         0.2258698746E-02      0.2327537983E-02
          0                20           1            10   10     1       0.1082135561E-02      10   10    1         0.1837576640E-02      0.1893539110E-02
                                                   Max.-Head-Change                         Max.-Flux-Residual
  Residual-Control   Outer-Iter.   Inner-Iter.     Column Row Layer    Maximum-Head-Change  Column Row Layer    Maximum-Flux-Residual          L2-NORM 
          0                21           1            10   10     1       0.8803743732E-03      10   10    1         0.1494967157E-02      0.1540477608E-02
          0                22           1            10   10     1       0.7162305260E-03      10   10    1         0.1216234551E-02      0.1253251982E-02
          0                23           1            10   10     1       0.5826907325E-03      10   10    1         0.9894702840E-03      0.1019582546E-02
          0                24           1            10   10     1       0.4740490895E-03      10   10    1         0.8049854595E-03      0.8294819495E-03
          0                25           1            10   10     1       0.3856634506E-03      10   10    1         0.6548973648E-03      0.6748259828E-03
          0                26           1            10   10     1       0.3137571477E-03      10   10    1         0.5327928793E-03      0.5490061424E-03
          0                27           1            10   10     1       0.2552576483E-03      10   10    1         0.4334545452E-03      0.4466449944E-03
          0                28           1            10   10     1       0.2076652812E-03      10   10    1         0.3526376678E-03      0.3633681767E-03
          0                29           1            10   10     1       0.1689464317E-03      10   10    1         0.2868889592E-03      0.2956198037E-03
          0                30           1            10   10     1       0.1374466478E-03      10   10    1         0.2333989871E-03      0.2405026054E-03
                                                   Max.-Head-Change                         Max.-Flux-Residual
  Residual-Control   Outer-Iter.   Inner-Iter.     Column Row Layer    Maximum-Head-Change  Column Row Layer    Maximum-Flux-Residual          L2-NORM 
          0                31           1            10   10     1       0.1118199466E-03      10   10    1         0.1898821313E-03      0.1956644427E-03
          0                32           1            10   10     1       0.9097130133E-04      10   10    1         0.1544789211E-03      0.1591817583E-03

    ------------------------------------------------
       NWT REQUIRED           32 OUTER ITERATIONS 
       AND A TOTAL OF         39 INNER ITERATIONS.
    ------------------------------------------------

 NO OUTPUT CONTROL FOR STRESS PERIOD    8   TIME STEP    8
 
 SOLVING FOR HEAD 
                                                   Max.-Head-Change                         Max.-Flux-Residual
  Residual-Control   Outer-Iter.   Inner-Iter.     Column Row Layer    Maximum-Head-Change  Column Row Layer    Maximum-Flux-Residual          L2-NORM 
          0                 1           2            10   10     2       0.1371507130E+00       4    7    1         0.1986568625E+01      0.8384724589E+01
          0                 2           2            10   10     2       0.5992059060E-01      10   10    2         0.7784620630E+00      0.2273857433E+01
          0                 3           2            10   10     1       0.3375935243E-01      10   10    2         0.3408013079E+00      0.8591227537E+00
          0                 4           2            10   10     1       0.2950859311E-01      10   10    2         0.1521678875E+00      0.3408466248E+00
          0                 5           2            10   10     1       0.2466562942E-01      10   10    2         0.7026124986E-01      0.1416184545E+00
          0                 6           2            10   10     1       0.2017704495E-01      10   10    2         0.3421639129E-01      0.6515611666E-01
          0                 7           2            10   10     1       0.1632535064E-01      10   10    1         0.2535036491E-01      0.3600960893E-01
          0                 8           1            10   10     1       0.1313381771E-01      10   10    1         0.2048878428E-01      0.2408562931E-01
          0                 9           1            10   10     1       0.1053451860E-01      10   10    1         0.1647390010E-01      0.1797831219E-01
          0                10           1            10   10     1       0.8436191149E-02      10   10    1         0.1320957372E-01      0.1401373390E-01
                                                   Max.-Head-Change                         Max.-Flux-Residual
  Residual-Control   Outer-Iter.   Inner-Iter.     Column Row Layer    Maximum-Head-Change  Column Row Layer    Maximum-Flux-Residual          L2-NORM 
          0                11           1            10   10     1       0.6750094251E-02      10   10    1         0.1057671363E-01      0.1109154713E-01
          0                12           1            10   10     1       0.5398547043E-02      10   10    1         0.8462078158E-02      0.8828116492E-02
          0                13           1            10   10     1       0.4316573486E-02      10   10    1         0.6767438309E-02      0.7042580783E-02
          0                14           1            10   10     1       0.3451003715E-02      10   10    1         0.5410981170E-02      0.5623893166E-02
          0                15           1            10   10     1       0.2758810237E-02      10   10    1         0.4325902326E-02      0.4493188751E-02
          0                16           1            10   10     1       0.2205374101E-02      10   10    1         0.3458200254E-02      0.3590701359E-02
          0                17           1            10   10     1       0.1762926429E-02      10   10    1         0.2764451702E-02      0.2869850708E-02
          0                18           1            10   10     1       0.1409228953E-02      10   10    1         0.2209836269E-02      0.2293868192E-02
          0                19           1            10   10     1       0.1126487815E-02      10   10    1         0.1766473120E-02      0.1833551173E-02
          0                20           1            10   10     1       0.9004718582E-03      10   10    1         0.1412055449E-02      0.1465637959E-02
                                                   Max.-Head-Change                         Max.-Flux-Residual
  Residual-Control   Outer-Iter.   Inner-Iter.     Column Row Layer    Maximum-Head-Change  Column Row Layer    Maximum-Flux-Residual          L2-NORM 
          0                21           1            10   10     1       0.7198020872E-03      10   10    1         0.1128743558E-02      0.1171557028E-02
          0                22           1            10   10     1       0.5753812325E-03      10   10    1         0.9022734670E-03      0.9364900407E-03
          0                23           1            10   10     1       0.4599367242E-03      10   10    1         0.7212415717E-03      0.7485886512E-03
          0                24           1            10   10     1       0.3676549187E-03      10   10    1         0.5765316269E-03      0.5983905049E-03
          0                25           1            10   10     1       0.2938885182E-03      10   10    1         0.4608561914E-03      0.4783286649E-03
          0                26           1            10   10     1       0.2349226170E-03      10   10    1         0.3683898585E-03      0.3823564386E-03
          0                27           1            10   10     1       0.1877876497E-03      10   10    1         0.2944759819E-03      0.3056547189E-03
          0                28           1            10   10     1       0.1501098584E-03      10   10    1         0.2353922051E-03      0.2443222021E-03
          0                29           1            10   10     1       0.1199917540E-03      10   10    1         0.1881630174E-03      0.1953027420E-03
          0                30           1            10   10     1       0.9591655791E-04      10   10    1         0.1504099117E-03      0.1561125491E-03

    ------------------------------------------------
       NWT REQUIRED           30 OUTER ITERATIONS 
       AND A TOTAL OF         37 INNER ITERATIONS.
    ------------------------------------------------

 NO OUTPUT CONTROL FOR STRESS PERIOD    8   TIME STEP    9
 
 SOLVING FOR HEAD 
                                                   Max.-Head-Change                         Max.-Flux-Residual
  Residual-Control   Outer-Iter.   Inner-Iter.     Column Row Layer    Maximum-Head-Change  Column Row Layer    Maximum-Flux-Residual          L2-NORM 
          0                 1           2             8    2     1       0.1313350124E+00       4    7    1         0.1983297446E+01      0.8190841578E+01
          0                 2           2             1    7     1       0.5031914264E-01       1    7    1         0.5888174847E+00      0.2145440659E+01
          0                 3           2            10   10     1       0.2998662937E-01       1    7    1         0.2422103035E+00      0.7882819936E+00
          0                 4           2            10   10     1       0.2543032310E-01       1    7    1         0.9967743295E-01      0.3024718227E+00
          0                 5           2            10   10     1       0.2069085285E-01      10   10    2         0.4315543873E-01      0.1201094525E+00
          0                 6           2            10   10     1       0.1651500799E-01      10   10    1         0.2361455940E-01      0.5195570283E-01
          0                 7           2            10   10     1       0.1306027269E-01      10   10    1         0.1881301330E-01      0.2692104448E-01
          0                 8           1            10   10     1       0.1028102712E-01      10   10    1         0.1486374237E-01      0.1727690748E-01
          0                 9           1            10   10     1       0.8074728903E-02      10   10    1         0.1169530619E-01      0.1260823706E-01
          0                10           1            10   10     1       0.6334631216E-02      10   10    1         0.9183378659E-02      0.9655815416E-02
                                                   Max.-Head-Change                         Max.-Flux-Residual
  Residual-Control   Outer-Iter.   Inner-Iter.     Column Row Layer    Maximum-Head-Change  Column Row Layer    Maximum-Flux-Residual          L2-NORM 
          0                11           1            10   10     1       0.4966657684E-02      10   10    1         0.7203530359E-02      0.7508071374E-02
          0                12           1            10   10     1       0.3892969303E-02      10   10    1         0.5647586687E-02      0.5866389731E-02
          0                13           1            10   10     1       0.3050943559E-02      10   10    1         0.4426565581E-02      0.4591401642E-02
          0                14           1            10   10     1       0.2390866558E-02      10   10    1         0.3469075035E-02      0.3595869366E-02
          0                15           1            10   10     1       0.1873528738E-02      10   10    1         0.2718514469E-02      0.2816982240E-02
          0                16           1            10   10     1       0.1468105438E-02      10   10    1         0.2130272045E-02      0.2207089911E-02
          0                17           1            10   10     1       0.1150403087E-02      10   10    1         0.1669287575E-02      0.1729348925E-02
          0                18           1            10   10     1       0.9014481827E-03      10   10    1         0.1308047637E-02      0.1355059070E-02
          0                19           1            10   10     1       0.7063670941E-03      10   10    1         0.1024976951E-02      0.1061794600E-02
          0                20           1            10   10     1       0.5535025562E-03      10   10    1         0.8031630155E-03      0.8320048994E-03
                                                   Max.-Head-Change                         Max.-Flux-Residual
  Residual-Control   Outer-Iter.   Inner-Iter.     Column Row Layer    Maximum-Head-Change  Column Row Layer    Maximum-Flux-Residual          L2-NORM 
          0                21           1            10   10     1       0.4337190932E-03      10   10    1         0.6293508632E-03      0.6519486382E-03
          0                22           1            10   10     1       0.3398578625E-03      10   10    1         0.4931530524E-03      0.5108586489E-03
          0                23           1            10   10     1       0.2663091181E-03      10   10    1         0.3864297018E-03      0.4003035115E-03
          0                24           1            10   10     1       0.2086770654E-03      10   10    1         0.3028023315E-03      0.3136744488E-03
          0                25           1            10   10     1       0.1635171802E-03      10   10    1         0.2372727698E-03      0.2457916229E-03
          0                26           1            10   10     1       0.1281303611E-03      10   10    1         0.1859244778E-03      0.1926000827E-03
          0                27           1            10   10     1       0.1004016174E-03      10   10    1         0.1456884874E-03      0.1509374713E-03
          0                28           1            10   10     1       0.7867366173E-04      10   10    1         0.1141599825E-03      0.1182762111E-03

    ------------------------------------------------
       NWT REQUIRED           28 OUTER ITERATIONS 
       AND A TOTAL OF         35 INNER ITERATIONS.
    ------------------------------------------------

 OUTPUT CONTROL FOR STRESS PERIOD    8   TIME STEP   10
    PRINT BUDGET
    SAVE BUDGET

  HEAD DEP BOUNDS   PERIOD    8   STEP    10
 BOUNDARY      1   LAYER   1   ROW    13   COL     1   RATE   -0.286222    
 BOUNDARY      2   LAYER   1   ROW    14   COL     9   RATE    0.206017    



 STREAM LISTING     PERIOD      8   STEP       10

 LAYER ROW COL. STREAM  RCH.  FLOW INTO     FLOW TO   FLOW OUT OF   OVRLND.     DIRECT     STREAM       STREAM     STREAM     STREAM   STREAMBED  STREAMBED
                SEG.NO.  NO.  STRM. RCH.    AQUIFER    STRM. RCH.    RUNOFF     PRECIP       ET          HEAD       DEPTH      WIDTH   CONDCTNC.   GRADIENT

   1    1    1     1     1    2.5000E+01  1.1812E+00   2.3819E+01  0.000E+00  0.000E+00  0.000E+00  1.09422E+03  1.171E+00  1.294E+01  5.825E-01  6.759E-01
   1    2    2     1     2    2.3819E+01  2.6268E+00   2.1192E+01  0.000E+00  0.000E+00  0.000E+00  1.08920E+03  1.142E+00  1.255E+01  8.785E-01  9.967E-01
   1    3    3     1     3    2.1192E+01  2.9288E+00   1.8263E+01  0.000E+00  0.000E+00  0.000E+00  1.08351E+03  1.096E+00  1.192E+01  7.151E-01  1.365E+00
   1    3    4     1     4    1.8263E+01  2.4890E+00   1.5774E+01  0.000E+00  0.000E+00  0.000E+00  1.07846E+03  1.050E+00  1.107E+01  6.146E-01  1.350E+00
   1    4    5     2     1    5.7742E+00  2.6738E+00   3.1003E+00  0.000E+00  0.000E+00  0.000E+00  1.07236E+03  4.280E-01  1.200E+01  7.800E-01  1.143E+00
   1    5    6     2     2    3.1003E+00  1.9648E+00   1.1356E+00  0.000E+00  0.000E+00  0.000E+00  1.06678E+03  2.746E-01  1.200E+01  6.000E-01  1.092E+00
   1    6    6     2     3    1.1356E+00  1.1356E+00   0.0000E+00  0.000E+00  0.000E+00  0.000E+00  1.06183E+03  4.251E-02  1.200E+01  6.000E-01  1.014E+00
   1    7    6     2     4    0.0000E+00  0.0000E+00   0.0000E+00  0.000E+00  0.000E+00  0.000E+00  1.05708E+03  0.000E+00  1.200E+01  6.000E-01  1.000E+00
   1    8    6     2     5    0.0000E+00  0.0000E+00   0.0000E+00  0.000E+00  0.000E+00  0.000E+00  1.05236E+03  0.000E+00  1.200E+01  6.000E-01  1.000E+00
   1    3    5     3     1    1.0000E+01  1.5255E+00   8.4745E+00  0.000E+00  0.000E+00  0.000E+00  1.07555E+03  1.909E+00  9.636E+00  7.227E-01  1.055E+00
   1    3    6     3     2    8.4745E+00  1.1368E+00   7.3377E+00  0.000E+00  0.000E+00  0.000E+00  1.07264E+03  1.727E+00  8.909E+00  6.682E-01  8.506E-01
   1    3    7     3     3    7.3377E+00  7.0419E-01   6.6335E+00  0.000E+00  0.000E+00  0.000E+00  1.06987E+03  1.555E+00  8.218E+00  5.547E-01  6.347E-01
   1    4    8     3     4    6.6335E+00  1.4125E+00   5.2210E+00  0.000E+00  0.000E+00  0.000E+00  1.06682E+03  1.364E+00  7.455E+00  6.709E-01  1.053E+00
   1    5    8     3     5    5.2210E+00  1.5050E+00   3.7160E+00  0.000E+00  0.000E+00  0.000E+00  1.06362E+03  1.164E+00  6.655E+00  4.991E-01  1.508E+00
   1    6    8     3     6    3.7160E+00  5.5980E-01   3.1562E+00  0.000E+00  0.000E+00  0.000E+00  1.06158E+03  1.036E+00  6.145E+00  1.844E-01  1.518E+00
   1    5   10     4     1    1.0000E+01  9.0525E-01   9.0947E+00  0.000E+00  0.000E+00  0.000E+00  1.07835E+03  6.210E-01  1.000E+01  2.500E-01  1.207E+00
   1    5    9     4     2    9.0947E+00  1.7835E+00   7.3113E+00  0.000E+00  0.000E+00  0.000E+00  1.07148E+03  5.670E-01  1.000E+01  5.000E-01  1.189E+00
   1    6    8     4     3    7.3113E+00  1.2257E+00   6.0855E+00  0.000E+00  0.000E+00  0.000E+00  1.06368E+03  5.021E-01  1.000E+01  3.500E-01  1.167E+00
   1    6    8     5     1    9.2418E+00  2.8689E-01   8.9549E+00  0.000E+00  0.000E+00  0.000E+00  1.05865E+03  6.498E-01  1.429E+01  5.718E-01  1.673E-01
   1    7    7     5     2    8.9549E+00  1.3244E+00   7.6305E+00  0.000E+00  0.000E+00  0.000E+00  1.05413E+03  6.290E-01  1.352E+01  6.760E-01  6.530E-01
   1    8    7     5     3    7.6305E+00  9.8093E-01   6.6496E+00  0.000E+00  0.000E+00  0.000E+00  1.04985E+03  5.969E-01  1.236E+01  4.326E-01  7.559E-01
   1    8    6     5     4    6.6496E+00  9.7509E-01   5.6745E+00  0.000E+00  0.000E+00  0.000E+00  1.04682E+03  5.669E-01  1.131E+01  2.829E-01  1.149E+00
   1    9    6     6     1    5.6745E+00  1.9332E+00   3.7413E+00  0.000E+00  0.000E+00  0.000E+00  1.04318E+03  4.484E-01  1.200E+01  6.000E-01  1.074E+00
   1   10    7     6     2    3.7413E+00  1.2474E+00   2.4939E+00  0.000E+00  0.000E+00  0.000E+00  1.03853E+03  3.502E-01  1.200E+01  6.000E-01  6.930E-01
   1   11    7     6     3    2.4939E+00  9.0987E-01   1.5840E+00  0.000E+00  0.000E+00  0.000E+00  1.03391E+03  2.714E-01  1.200E+01  6.000E-01  5.055E-01
   1   12    7     6     4    1.5840E+00  4.2995E-01   1.1540E+00  0.000E+00  0.000E+00  0.000E+00  1.02930E+03  2.137E-01  1.200E+01  6.000E-01  2.389E-01
   1   13    7     6     5    1.1540E+00 -7.9547E-01   1.9495E+00  0.000E+00  0.000E+00  0.000E+00  1.02614E+03  2.304E-01  1.200E+01  2.400E-01 -1.105E+00
   1   14    9     7     1    1.5000E+02  1.6171E+00   1.4838E+02  0.000E+00  0.000E+00  0.000E+00  1.03987E+03  2.287E+00  5.529E+01  5.593E+00  9.638E-02
   1   13    8     7     2    1.4838E+02  1.5343E+00   1.4685E+02  0.000E+00  0.000E+00  0.000E+00  1.03478E+03  2.279E+00  5.525E+01  6.147E+00  8.320E-02
   1   13    7     7     3    1.4685E+02  1.3200E+00   1.4553E+02  0.000E+00  0.000E+00  0.000E+00  1.02969E+03  2.271E+00  5.522E+01  5.585E+00  7.879E-02
   1   13    6     8     1    1.4748E+02  1.4734E-01   1.4733E+02  0.000E+00  0.000E+00  0.000E+00  1.02467E+03  2.798E+00  4.058E+01  4.135E+00  1.188E-02
   1   13    5     8     2    1.4733E+02 -5.2397E-01   1.4785E+02  0.000E+00  0.000E+00  0.000E+00  1.01842E+03  2.800E+00  4.060E+01  4.137E+00 -4.222E-02
   1   13    4     8     3    1.4785E+02 -1.4464E+00   1.4930E+02  0.000E+00  0.000E+00  0.000E+00  1.01218E+03  2.807E+00  4.070E+01  4.147E+00 -1.163E-01
   1   13    3     8     4    1.4930E+02 -2.1704E+00   1.5147E+02  0.000E+00  0.000E+00  0.000E+00  1.00594E+03  2.820E+00  4.088E+01  4.166E+00 -1.737E-01
   1   13    2     8     5    1.5147E+02 -2.2564E+00   1.5373E+02  0.000E+00  0.000E+00  0.000E+00  9.99710E+02  2.835E+00  4.111E+01  4.189E+00 -1.795E-01
   1   13    1     8     6    1.5373E+02 -2.0395E+00   1.5577E+02  0.000E+00  0.000E+00  0.000E+00  9.94725E+02  2.850E+00  4.132E+01  2.527E+00 -2.691E-01



 UBDSV3 SAVING "           GW ET" ON UNIT  61 AT TIME STEP 10, STRESS PERIOD   8
 UBDSV3 SAVING "    UZF RECHARGE" ON UNIT  61 AT TIME STEP 10, STRESS PERIOD   8
 UBDSV3 SAVING " SURFACE LEAKAGE" ON UNIT  61 AT TIME STEP 10, STRESS PERIOD   8
 UBDSV3 SAVING "       HORT+DUNN" ON UNIT  61 AT TIME STEP 10, STRESS PERIOD   8
 UBDSV3 SAVING "  STORAGE CHANGE" ON UNIT  61 AT TIME STEP 10, STRESS PERIOD   8


UNSATURATED ZONE PACKAGE VOLUMETRIC BUDGET FOR  TIME STEP    10 STRESS PERIOD    8
  ------------------------------------------------------------------------------



     CUMULATIVE VOLUMES      L**3       RATES FOR THIS TIME STEP      L**3/T
     ------------------                 ------------------------

           IN:                                      IN:
           ---                                      ---
        INFILTRATION =  1325109727.3545          INFILTRATION =          42.3750

          OUT:                                     OUT:
          ----                                     ----
              UZF ET =        8040.5740                UZF ET =       0.0000E+00
        UZF RECHARGE =   785842931.3112          UZF RECHARGE =          73.9516

            IN - OUT =   539258755.4692              IN - OUT =         -31.5766

          STORAGE:                                 STORAGE:
          --------                                 --------
      STORAGE CHANGE =   539713320.4798        STORAGE CHANGE =         -31.5341

 PERCENT DISCREPANCY IS DIFFERENCE BETWEEN IN-OUT MINUS CHANGE IN STORAGE
 DIVIDED BY THE AVERAGE OF IN AND OUT TIMES 100

 PERCENT DISCREPANCY =          -0.01     PERCENT DISCREPANCY =          -0.06






1
  VOLUMETRIC BUDGET FOR ENTIRE MODEL AT END OF TIME STEP   10, STRESS PERIOD   8
  ------------------------------------------------------------------------------

     CUMULATIVE VOLUMES      L**3       RATES FOR THIS TIME STEP      L**3/T
     ------------------                 ------------------------

           IN:                                      IN:
           ---                                      ---
             STORAGE     =    67437248.0000               STORAGE     =           3.2812
       CONSTANT HEAD     =           0.0000         CONSTANT HEAD     =           0.0000
               WELLS     =           0.0000                 WELLS     =           0.0000
     HEAD DEP BOUNDS     =     4081707.5000       HEAD DEP BOUNDS     =           0.2060
      STREAM LEAKAGE     =   781977728.0000        STREAM LEAKAGE     =          38.4647
        UZF RECHARGE     =   785843072.0000          UZF RECHARGE     =          73.9516
               GW ET     =           0.0000                 GW ET     =           0.0000
     SURFACE LEAKAGE     =           0.0000       SURFACE LEAKAGE     =           0.0000

                TOTAL IN =  1639339776.0000                  TOTAL IN =         115.9036

          OUT:                                     OUT:
          ----                                     ----
             STORAGE     =   671009984.0000               STORAGE     =          81.9622
       CONSTANT HEAD     =           0.0000         CONSTANT HEAD     =           0.0000
               WELLS     =   289079936.0000                 WELLS     =           0.0000
     HEAD DEP BOUNDS     =     5588155.5000       HEAD DEP BOUNDS     =           0.2862
      STREAM LEAKAGE     =   161838096.0000        STREAM LEAKAGE     =           9.2322
        UZF RECHARGE     =           0.0000          UZF RECHARGE     =           0.0000
               GW ET     =   466667360.0000                 GW ET     =          24.4229
     SURFACE LEAKAGE     =    45145140.0000       SURFACE LEAKAGE     =           0.0000

               TOTAL OUT =  1639328640.0000                 TOTAL OUT =         115.9034

                IN - OUT =       11136.0000                  IN - OUT =       1.5259E-04

     PERCENT DISCREPANCY =           0.00         PERCENT DISCREPANCY =           0.00






         TIME SUMMARY AT END OF TIME STEP   10 IN STRESS PERIOD    8
                    SECONDS     MINUTES      HOURS       DAYS        YEARS
                    -----------------------------------------------------------
   TIME STEP LENGTH 1.95033E+05  3250.6      54.176      2.2573     6.18023E-03
 STRESS PERIOD TIME 1.31823E+06  21971.      366.18      15.257     4.17723E-02
         TOTAL TIME 1.97142E+07 3.28570E+05  5476.2      228.17     0.62471    
1
 
 SOLVING FOR HEAD 
                                                   Max.-Head-Change                         Max.-Flux-Residual
  Residual-Control   Outer-Iter.   Inner-Iter.     Column Row Layer    Maximum-Head-Change  Column Row Layer    Maximum-Flux-Residual          L2-NORM 
          0                 1           2             8    2     1       0.1437762605E+00       4    7    1         0.1979689171E+01      0.8048763365E+01
          0                 2           2             8    2     1       0.5386307008E-01      10   10    2         0.5759867312E+00      0.2052233697E+01
          0                 3           2            10   10     1       0.3423726462E-01      10   10    2         0.2343925917E+00      0.7417778109E+00
          0                 4           2            10   10     1       0.2853244527E-01      10   10    2         0.9825637136E-01      0.2804376108E+00
          0                 5           2            10   10     1       0.2279100824E-01      10   10    2         0.4332216167E-01      0.1102388286E+00
          0                 6           2            10   10     1       0.1784737092E-01      10   10    1         0.2359889938E-01      0.4792650174E-01
          0                 7           2            10   10     1       0.1384098374E-01      10   10    1         0.1844324156E-01      0.2536995152E-01
          0                 8           1            10   10     1       0.1068189286E-01      10   10    1         0.1428892223E-01      0.1647532713E-01
          0                 9           1            10   10     1       0.8223580055E-02      10   10    1         0.1102208079E-01      0.1193620501E-01
          0                10           1            10   10     1       0.6323097655E-02      10   10    1         0.8483323543E-02      0.8991313582E-02
                                                   Max.-Head-Change                         Max.-Flux-Residual
  Residual-Control   Outer-Iter.   Inner-Iter.     Column Row Layer    Maximum-Head-Change  Column Row Layer    Maximum-Flux-Residual          L2-NORM 
          0                11           1            10   10     1       0.4858714718E-02      10   10    1         0.6521970385E-02      0.6857170200E-02
          0                12           1            10   10     1       0.3732253551E-02      10   10    1         0.5011199351E-02      0.5251129484E-02
          0                13           1            10   10     1       0.2866476534E-02      10   10    1         0.3849256051E-02      0.4027412411E-02
          0                14           1            10   10     1       0.2201347310E-02      10   10    1         0.2956287035E-02      0.3090849460E-02
          0                15           1            10   10     1       0.1690479003E-02      10   10    1         0.2270298596E-02      0.2372775222E-02
          0                16           1            10   10     1       0.1298139295E-02      10   10    1         0.1743420976E-02      0.1821782329E-02
          0                17           1            10   10     1       0.9968455011E-03      10   10    1         0.1338791071E-02      0.1398835718E-02
          0                18           1            10   10     1       0.7654765235E-03      10   10    1         0.1028060974E-02      0.1074118608E-02
          0                19           1            10   10     1       0.5878067977E-03      10   10    1         0.7894464053E-03      0.8247940946E-03
          0                20           1            10   10     1       0.4513741378E-03      10   10    1         0.6062130199E-03      0.6333485326E-03
                                                   Max.-Head-Change                         Max.-Flux-Residual
  Residual-Control   Outer-Iter.   Inner-Iter.     Column Row Layer    Maximum-Head-Change  Column Row Layer    Maximum-Flux-Residual          L2-NORM 
          0                21           1            10   10     1       0.3466078571E-03      10   10    1         0.4655081297E-03      0.4863423620E-03
          0                22           1            10   10     1       0.2661582692E-03      10   10    1         0.3574612542E-03      0.3734587638E-03
          0                23           1            10   10     1       0.2043814317E-03      10   10    1         0.2744925260E-03      0.2867764942E-03
          0                24           1            10   10     1       0.1569433316E-03      10   10    1         0.2107812588E-03      0.2202137865E-03
          0                25           1            10   10     1       0.1205158799E-03      10   10    1         0.1618577219E-03      0.1691008854E-03
          0                26           1            10   10     1       0.9254344733E-04      10   10    1         0.1242896120E-03      0.1298518398E-03

    ------------------------------------------------
       NWT REQUIRED           26 OUTER ITERATIONS 
       AND A TOTAL OF         33 INNER ITERATIONS.
    ------------------------------------------------

 NO OUTPUT CONTROL FOR STRESS PERIOD    8   TIME STEP   11
 
 SOLVING FOR HEAD 
                                                   Max.-Head-Change                         Max.-Flux-Residual
  Residual-Control   Outer-Iter.   Inner-Iter.     Column Row Layer    Maximum-Head-Change  Column Row Layer    Maximum-Flux-Residual          L2-NORM 
          0                 1           2             8    2     1       0.1459007143E+00       4    7    1         0.1975723266E+01      0.7882108560E+01
          0                 2           2            10   10     2       0.5858769590E-01      10   10    2         0.5714441637E+00      0.1957358107E+01
          0                 3           2            10   10     1       0.3894870937E-01      10   10    2         0.2325804960E+00      0.6963522818E+00
          0                 4           2            10   10     1       0.3186159902E-01      10   10    2         0.9787297482E-01      0.2603988634E+00
          0                 5           2            10   10     1       0.2495763669E-01      10   10    2         0.4350651554E-01      0.1021561541E+00
          0                 6           2            10   10     1       0.1915261370E-01      10   10    1         0.2344173604E-01      0.4499529931E-01
          0                 7           2            10   10     1       0.1454901320E-01      10   10    1         0.1795158139E-01      0.2425738995E-01
          0                 8           1            10   10     1       0.1099503650E-01      10   10    1         0.1362224033E-01      0.1576704961E-01
          0                 9           1            10   10     1       0.8287218419E-02      10   10    1         0.1028908003E-01      0.1125722707E-01
          0                10           1            10   10     1       0.6237729995E-02      10   10    1         0.7752959372E-02      0.8310912574E-02
                                                   Max.-Head-Change                         Max.-Flux-Residual
  Residual-Control   Outer-Iter.   Inner-Iter.     Column Row Layer    Maximum-Head-Change  Column Row Layer    Maximum-Flux-Residual          L2-NORM 
          0                11           1            10   10     1       0.4691768331E-02      10   10    1         0.5834755401E-02      0.6204019799E-02
          0                12           1            10   10     1       0.3527661406E-02      10   10    1         0.4388339335E-02      0.4649414255E-02
          0                13           1            10   10     1       0.2651882969E-02      10   10    1         0.3299390578E-02      0.3489769125E-02
          0                14           1            10   10     1       0.1993328063E-02      10   10    1         0.2480233020E-02      0.2621142780E-02
          0                15           1            10   10     1       0.1498238177E-02      10   10    1         0.1864285438E-02      0.1969363954E-02
          0                16           1            10   10     1       0.1126085410E-02      10   10    1         0.1401238813E-02      0.1479916385E-02
          0                17           1            10   10     1       0.8463612639E-03      10   10    1         0.1053177159E-02      0.1112196821E-02
          0                18           1            10   10     1       0.6361171393E-03      10   10    1         0.7915625933E-03      0.8358540363E-03
          0                19           1            10   10     1       0.4780978520E-03      10   10    1         0.5949305448E-03      0.6282489787E-03
          0                20           1            10   10     1       0.3593317950E-03      10   10    1         0.4471423484E-03      0.4722011439E-03
                                                   Max.-Head-Change                         Max.-Flux-Residual
  Residual-Control   Outer-Iter.   Inner-Iter.     Column Row Layer    Maximum-Head-Change  Column Row Layer    Maximum-Flux-Residual          L2-NORM 
          0                21           1            10   10     1       0.2700685822E-03      10   10    1         0.3360660011E-03      0.3548519177E-03
          0                22           1            10   10     1       0.2029795371E-03      10   10    1         0.2525823256E-03      0.2668158605E-03
          0                23           1            10   10     1       0.1525563654E-03      10   10    1         0.1898371178E-03      0.2005929752E-03
          0                24           1            10   10     1       0.1146590529E-03      10   10    1         0.1426787184E-03      0.1506585915E-03
          0                25           1            10   10     1       0.8617600058E-04      10   10    1         0.1072351621E-03      0.1135016101E-03

    ------------------------------------------------
       NWT REQUIRED           25 OUTER ITERATIONS 
       AND A TOTAL OF         32 INNER ITERATIONS.
    ------------------------------------------------

 NO OUTPUT CONTROL FOR STRESS PERIOD    8   TIME STEP   12
 
 SOLVING FOR HEAD 
                                                   Max.-Head-Change                         Max.-Flux-Residual
  Residual-Control   Outer-Iter.   Inner-Iter.     Column Row Layer    Maximum-Head-Change  Column Row Layer    Maximum-Flux-Residual          L2-NORM 
          0                 1           2            10   10     2       0.1576635441E+00       4    7    1         0.1971194590E+01      0.7597961059E+01
          0                 2           2            10   10     2       0.5588167149E+01      10   10    2         0.1481618899E+01      0.2238363154E+01
          0                 3           2            10   10     2       0.7085446915E+02      10   10    2         0.2413591169E+02      0.2720172247E+02
          0                 4           3            10   10     2       0.2559409065E+03      10   10    2         0.1632189271E+03      0.1632256492E+03
          0                 5           2            10   10     2      -0.2465951492E+02      10   10    2        -0.1632189295E+02      0.1717810192E+02
          0                 6           2            10   10     2       0.1426724224E+01      10   10    2         0.9793132524E+00      0.1022765322E+01
          0                 7           2            10   10     2      -0.2958734372E-01       9   11    1         0.3558832098E-01      0.7955110455E-01
          0                 8           2             9   11     1       0.1385780240E-02       9   11    1         0.1228165123E-01      0.1617769418E-01
          0                 9           1             9   11     1       0.4762726067E-03       9   11    1         0.4218891040E-02      0.4733071264E-02
          0                10           1             9   11     1       0.1636499979E-03       9   11    1         0.1450185223E-02      0.1570923364E-02
          0                11           1             9   11     1       0.5622515638E-04       9   11    1         0.4982370672E-03      0.5383435988E-03

    ------------------------------------------------
       NWT REQUIRED           11 OUTER ITERATIONS 
       AND A TOTAL OF         20 INNER ITERATIONS.
    ------------------------------------------------

 NO OUTPUT CONTROL FOR STRESS PERIOD    8   TIME STEP   13
 
 SOLVING FOR HEAD 
                                                   Max.-Head-Change                         Max.-Flux-Residual
  Residual-Control   Outer-Iter.   Inner-Iter.     Column Row Layer    Maximum-Head-Change  Column Row Layer    Maximum-Flux-Residual          L2-NORM 
          0                 1           3            10   10     2      -0.3228209001E+03      10   10    2        -0.1112212494E+03      0.1496744485E+03
          0                 2           2            10   10     2       0.1508455593E+02      10   10    2         0.1299456424E+03      0.1303379849E+03
          0                 3           2            10   10     2       0.1568773741E+02      10   10    2         0.5210713769E+01      0.5276581761E+01
          0                 4           2            10   10     2      -0.1511116798E+01      10   10    2        -0.5364387287E+00      0.6844850123E+00
          0                 5           2            10   10     2       0.8753175003E-01      10   10    2         0.3250480375E-01      0.8719297780E-01
          0                 6           2            10   10     2      -0.1792392394E-02       9    9    1         0.1100810581E-01      0.2710355046E-01
          0                 7           1             9    9     1       0.5133420951E-03       9    9    1         0.4131312241E-02      0.9842461448E-02
          0                 8           1             9    9     1       0.1909935848E-03       9    9    1         0.1534005053E-02      0.3586518325E-02
          0                 9           1             9    9     1       0.7104875670E-04       9    9    1         0.5710492725E-03      0.1312039048E-02

    ------------------------------------------------
       NWT REQUIRED            9 OUTER ITERATIONS 
       AND A TOTAL OF         16 INNER ITERATIONS.
    ------------------------------------------------

 NO OUTPUT CONTROL FOR STRESS PERIOD    8   TIME STEP   14
 
 SOLVING FOR HEAD 
                                                   Max.-Head-Change                         Max.-Flux-Residual
  Residual-Control   Outer-Iter.   Inner-Iter.     Column Row Layer    Maximum-Head-Change  Column Row Layer    Maximum-Flux-Residual          L2-NORM 
          0                 1           2            10   10     2      -0.7621534840E+01      10   10    2        -0.2569392868E+01      0.8129012923E+01
          0                 2           2            10   10     2       0.7419160035E+00       9   10    1         0.5481346632E+00      0.1652538171E+01
          0                 3           2            10   10     2      -0.4026551605E-01       9   10    1         0.2179278228E+00      0.5501809529E+00
          0                 4           2             9   10     1       0.1096540470E-01       9   10    1         0.8013368960E-01      0.1944256794E+00
          0                 5           2             9   10     1       0.4066841199E-02       9   10    1         0.2979775905E-01      0.6951829947E-01
          0                 6           2             9   10     1       0.1508043324E-02       9   10    1         0.1104363082E-01      0.2498650148E-01
          0                 7           1             9   10     1       0.5591290624E-03       9   10    1         0.4095722399E-02      0.9022088199E-02
          0                 8           1             9   10     1       0.2072845414E-03       9   10    1         0.1518435393E-02      0.3269999116E-02
          0                 9           1             9   10     1       0.7684003889E-04       9   10    1         0.5629220645E-03      0.1189118450E-02

    ------------------------------------------------
       NWT REQUIRED            9 OUTER ITERATIONS 
       AND A TOTAL OF         15 INNER ITERATIONS.
    ------------------------------------------------

 OUTPUT CONTROL FOR STRESS PERIOD    8   TIME STEP   15
    PRINT BUDGET
    PRINT HEAD FOR ALL LAYERS
    SAVE HEAD FOR ALL LAYERS
    SAVE BUDGET

  HEAD DEP BOUNDS   PERIOD    8   STEP    15
 BOUNDARY      1   LAYER   1   ROW    13   COL     1   RATE   -0.286278    
 BOUNDARY      2   LAYER   1   ROW    14   COL     9   RATE    0.205825    



 STREAM LISTING     PERIOD      8   STEP       15

 LAYER ROW COL. STREAM  RCH.  FLOW INTO     FLOW TO   FLOW OUT OF   OVRLND.     DIRECT     STREAM       STREAM     STREAM     STREAM   STREAMBED  STREAMBED
                SEG.NO.  NO.  STRM. RCH.    AQUIFER    STRM. RCH.    RUNOFF     PRECIP       ET          HEAD       DEPTH      WIDTH   CONDCTNC.   GRADIENT

   1    1    1     1     1    2.5000E+01  1.1739E+00   2.3826E+01  0.000E+00  0.000E+00  0.000E+00  1.09422E+03  1.171E+00  1.294E+01  5.825E-01  6.717E-01
   1    2    2     1     2    2.3826E+01  2.6024E+00   2.1224E+01  0.000E+00  0.000E+00  0.000E+00  1.08920E+03  1.142E+00  1.255E+01  8.788E-01  9.871E-01
   1    3    3     1     3    2.1224E+01  2.9314E+00   1.8292E+01  0.000E+00  0.000E+00  0.000E+00  1.08351E+03  1.096E+00  1.193E+01  7.157E-01  1.365E+00
   1    3    4     1     4    1.8292E+01  2.4914E+00   1.5801E+01  0.000E+00  0.000E+00  0.000E+00  1.07846E+03  1.050E+00  1.108E+01  6.151E-01  1.350E+00
   1    4    5     2     1    5.8009E+00  2.6750E+00   3.1259E+00  0.000E+00  0.000E+00  0.000E+00  1.07236E+03  4.295E-01  1.200E+01  7.800E-01  1.143E+00
   1    5    6     2     2    3.1259E+00  1.9659E+00   1.1600E+00  0.000E+00  0.000E+00  0.000E+00  1.06679E+03  2.765E-01  1.200E+01  6.000E-01  1.092E+00
   1    6    6     2     3    1.1600E+00  1.1600E+00   0.0000E+00  0.000E+00  0.000E+00  0.000E+00  1.06184E+03  4.305E-02  1.200E+01  6.000E-01  1.014E+00
   1    7    6     2     4    0.0000E+00  0.0000E+00   0.0000E+00  0.000E+00  0.000E+00  0.000E+00  1.05708E+03  0.000E+00  1.200E+01  6.000E-01  1.000E+00
   1    8    6     2     5    0.0000E+00  0.0000E+00   0.0000E+00  0.000E+00  0.000E+00  0.000E+00  1.05236E+03  0.000E+00  1.200E+01  6.000E-01  1.000E+00
   1    3    5     3     1    1.0000E+01  1.4449E+00   8.5551E+00  0.000E+00  0.000E+00  0.000E+00  1.07555E+03  1.909E+00  9.636E+00  7.227E-01  9.996E-01
   1    3    6     3     2    8.5551E+00  1.0740E+00   7.4811E+00  0.000E+00  0.000E+00  0.000E+00  1.07264E+03  1.727E+00  8.909E+00  6.682E-01  8.037E-01
   1    3    7     3     3    7.4811E+00  6.9551E-01   6.7856E+00  0.000E+00  0.000E+00  0.000E+00  1.06987E+03  1.555E+00  8.218E+00  5.547E-01  6.269E-01
   1    4    8     3     4    6.7856E+00  1.4050E+00   5.3806E+00  0.000E+00  0.000E+00  0.000E+00  1.06682E+03  1.364E+00  7.455E+00  6.709E-01  1.047E+00
   1    5    8     3     5    5.3806E+00  1.4940E+00   3.8866E+00  0.000E+00  0.000E+00  0.000E+00  1.06362E+03  1.164E+00  6.655E+00  4.991E-01  1.497E+00
   1    6    8     3     6    3.8866E+00  5.5980E-01   3.3268E+00  0.000E+00  0.000E+00  0.000E+00  1.06158E+03  1.036E+00  6.145E+00  1.844E-01  1.518E+00
   1    5   10     4     1    1.0000E+01  9.0525E-01   9.0947E+00  0.000E+00  0.000E+00  0.000E+00  1.07835E+03  6.210E-01  1.000E+01  2.500E-01  1.207E+00
   1    5    9     4     2    9.0947E+00  1.7835E+00   7.3113E+00  0.000E+00  0.000E+00  0.000E+00  1.07148E+03  5.670E-01  1.000E+01  5.000E-01  1.189E+00
   1    6    8     4     3    7.3113E+00  1.2257E+00   6.0855E+00  0.000E+00  0.000E+00  0.000E+00  1.06368E+03  5.021E-01  1.000E+01  3.500E-01  1.167E+00
   1    6    8     5     1    9.4124E+00  2.9228E-01   9.1201E+00  0.000E+00  0.000E+00  0.000E+00  1.05865E+03  6.539E-01  1.445E+01  5.781E-01  1.685E-01
   1    7    7     5     2    9.1201E+00  1.3406E+00   7.7795E+00  0.000E+00  0.000E+00  0.000E+00  1.05413E+03  6.332E-01  1.367E+01  6.837E-01  6.536E-01
   1    8    7     5     3    7.7795E+00  9.8610E-01   6.7934E+00  0.000E+00  0.000E+00  0.000E+00  1.04985E+03  6.012E-01  1.251E+01  4.379E-01  7.506E-01
   1    8    6     5     4    6.7934E+00  9.7130E-01   5.8221E+00  0.000E+00  0.000E+00  0.000E+00  1.04682E+03  5.716E-01  1.147E+01  2.868E-01  1.129E+00
   1    9    6     6     1    5.8221E+00  1.9054E+00   3.9167E+00  0.000E+00  0.000E+00  0.000E+00  1.04318E+03  4.576E-01  1.200E+01  6.000E-01  1.059E+00
   1   10    7     6     2    3.9167E+00  1.1977E+00   2.7190E+00  0.000E+00  0.000E+00  0.000E+00  1.03855E+03  3.635E-01  1.200E+01  6.000E-01  6.654E-01
   1   11    7     6     3    2.7190E+00  8.4842E-01   1.8706E+00  0.000E+00  0.000E+00  0.000E+00  1.03393E+03  2.914E-01  1.200E+01  6.000E-01  4.713E-01
   1   12    7     6     4    1.8706E+00  3.7626E-01   1.4943E+00  0.000E+00  0.000E+00  0.000E+00  1.02933E+03  2.418E-01  1.200E+01  6.000E-01  2.090E-01
   1   13    7     6     5    1.4943E+00 -7.8999E-01   2.2843E+00  0.000E+00  0.000E+00  0.000E+00  1.02617E+03  2.593E-01  1.200E+01  2.400E-01 -1.097E+00
   1   14    9     7     1    1.5000E+02  1.5892E+00   1.4841E+02  0.000E+00  0.000E+00  0.000E+00  1.03987E+03  2.287E+00  5.529E+01  5.593E+00  9.472E-02
   1   13    8     7     2    1.4841E+02  1.5046E+00   1.4691E+02  0.000E+00  0.000E+00  0.000E+00  1.03478E+03  2.279E+00  5.525E+01  6.147E+00  8.158E-02
   1   13    7     7     3    1.4691E+02  1.2885E+00   1.4562E+02  0.000E+00  0.000E+00  0.000E+00  1.02969E+03  2.271E+00  5.522E+01  5.585E+00  7.690E-02
   1   13    6     8     1    1.4790E+02 -7.8221E-02   1.4798E+02  0.000E+00  0.000E+00  0.000E+00  1.02468E+03  2.802E+00  4.063E+01  4.141E+00 -6.297E-03
   1   13    5     8     2    1.4798E+02 -7.9591E-01   1.4878E+02  0.000E+00  0.000E+00  0.000E+00  1.01843E+03  2.805E+00  4.068E+01  4.145E+00 -6.400E-02
   1   13    4     8     3    1.4878E+02 -1.6579E+00   1.5043E+02  0.000E+00  0.000E+00  0.000E+00  1.01219E+03  2.814E+00  4.080E+01  4.158E+00 -1.329E-01
   1   13    3     8     4    1.5043E+02 -2.3200E+00   1.5275E+02  0.000E+00  0.000E+00  0.000E+00  1.00595E+03  2.828E+00  4.101E+01  4.179E+00 -1.851E-01
   1   13    2     8     5    1.5275E+02 -2.3758E+00   1.5513E+02  0.000E+00  0.000E+00  0.000E+00  9.99719E+02  2.844E+00  4.124E+01  4.203E+00 -1.884E-01
   1   13    1     8     6    1.5513E+02 -2.0258E+00   1.5716E+02  0.000E+00  0.000E+00  0.000E+00  9.94735E+02  2.860E+00  4.146E+01  2.535E+00 -2.664E-01



 UBDSV3 SAVING "           GW ET" ON UNIT  61 AT TIME STEP 15, STRESS PERIOD   8
 UBDSV3 SAVING "    UZF RECHARGE" ON UNIT  61 AT TIME STEP 15, STRESS PERIOD   8
 UBDSV3 SAVING " SURFACE LEAKAGE" ON UNIT  61 AT TIME STEP 15, STRESS PERIOD   8
 UBDSV3 SAVING "       HORT+DUNN" ON UNIT  61 AT TIME STEP 15, STRESS PERIOD   8
 UBDSV3 SAVING "  STORAGE CHANGE" ON UNIT  61 AT TIME STEP 15, STRESS PERIOD   8


UNSATURATED ZONE PACKAGE VOLUMETRIC BUDGET FOR  TIME STEP    15 STRESS PERIOD    8
  ------------------------------------------------------------------------------



     CUMULATIVE VOLUMES      L**3       RATES FOR THIS TIME STEP      L**3/T
     ------------------                 ------------------------

           IN:                                      IN:
           ---                                      ---
        INFILTRATION =  1380351488.8232          INFILTRATION =          42.3750

          OUT:                                     OUT:
          ----                                     ----
              UZF ET =        8040.5740                UZF ET =       0.0000E+00
        UZF RECHARGE =   928439240.0603          UZF RECHARGE =          63.5236

            IN - OUT =   451904208.1890              IN - OUT =         -21.1486

          STORAGE:                                 STORAGE:
          --------                                 --------
      STORAGE CHANGE =   452622575.8515        STORAGE CHANGE =         -20.9449

 PERCENT DISCREPANCY IS DIFFERENCE BETWEEN IN-OUT MINUS CHANGE IN STORAGE
 DIVIDED BY THE AVERAGE OF IN AND OUT TIMES 100

 PERCENT DISCREPANCY =          -0.01     PERCENT DISCREPANCY =          -0.32






1
              HEAD IN LAYER   1 AT END OF TIME STEP  15 IN STRESS PERIOD    8
  ---------------------------------------------------------------------------

           1       2       3       4       5       6       7       8       9      10
 ...................................................................................
   1  1092.20 1087.73 6999.00 6999.00 6999.00 6999.00 6999.00 6999.00 6999.00 6999.00
   2  1088.95 1086.24 1078.32 6999.00 6999.00 1080.11 1079.04 1072.05 6999.00 6999.00
   3  6999.00 1078.75 1078.82 1074.13 1073.55 1071.03 1068.62 1070.97 6999.00 6999.00
   4  1072.48 1069.51 1065.02 1063.56 1066.12 1061.46 1060.03 1064.72 1062.23 6999.00
   5  1068.69 1061.63 1055.89 1053.41 1055.65 1060.42 1057.17 1060.62 1064.23 1065.67
   6  1064.88 1056.33 1053.04 1039.77 1042.90 1053.10 1054.02 1058.15 1057.84 1066.56
   7  1061.55 1051.24 1047.68 1031.25 1034.96 1045.80 1052.17 1052.73 1053.47 6999.00
   8  6999.00 1046.00 1042.95 1027.35 1030.82 1043.44 1047.60 1048.38 1051.71 6999.00
   9  6999.00 1039.90 1038.12 1023.55 1027.42 1040.01 1040.20 1041.87 1046.31 6999.00
  10  6999.00 1033.78 1033.50 1021.49 1023.98 1032.27 1036.55 1037.84 1043.38 1060.45
  11  6999.00 1023.97 1024.52 1024.03 1025.70 1028.93 1032.51 1035.18 1040.63 6999.00
  12  1006.78 1013.61 1015.86 1019.44 1022.18 1025.30 1028.71 1030.85 1035.39 6999.00
  13   995.53 1000.28 1006.51 1012.59 1018.62 1024.70 1029.46 1034.53 1035.90 6999.00
  14  6999.00 1014.48 1023.03 1027.86 1031.01 1034.17 1036.19 1036.17 1039.58 6999.00
  15  6999.00 6999.00 1039.84 1040.56 1038.88 1039.62 6999.00 6999.00 6999.00 6999.00
1
              HEAD IN LAYER   2 AT END OF TIME STEP  15 IN STRESS PERIOD    8
  ---------------------------------------------------------------------------

           1       2       3       4       5       6       7       8       9      10
 ...................................................................................
   1  1091.12 1087.25 6999.00 6999.00 6999.00 6999.00 6999.00 6999.00 6999.00 6999.00
   2  1088.58 1081.30 1075.86 6999.00 6999.00 1078.44 1077.30 1072.27 6999.00 6999.00
   3  6999.00 1074.99 1068.85 1064.98 1064.32 1065.63 1066.71 1069.24 6999.00 6999.00
   4  1071.14 1068.21 1063.20 1059.54 1058.08 1057.62 1059.01 1062.36 1061.94 6999.00
   5  1067.42 1061.20 1056.64 1054.21 1053.85 1054.12 1054.42 1056.25 1060.11 1064.18
   6  1063.61 1056.13 1051.64 1049.19 1049.30 1050.44 1051.69 1053.56 1057.22 1065.73
   7  1060.41 1051.16 1046.74 1044.43 1044.92 1046.42 1048.31 1050.79 1053.53 6999.00
   8  6999.00 1045.39 1042.05 1040.04 1040.70 1042.29 1044.10 1047.87 1051.12 6999.00
   9  6999.00 1039.23 1037.11 1035.70 1036.53 1038.15 1039.57 1041.96 1046.16 6999.00
  10  6999.00 1032.95 1032.17 1031.83 1032.92 1034.49 1035.77 1038.01 1043.90 1058.82
  11  6999.00 1024.55 1025.82 1028.27 1029.90 1031.60 1033.07 1035.11 1039.85 6999.00
  12  1007.13 1015.14 1020.50 1024.42 1027.11 1029.34 1031.00 1032.33 1035.62 6999.00
  13  1000.52 1008.28 1016.66 1022.06 1025.59 1028.44 1030.84 1033.23 1035.72 6999.00
  14  6999.00 1014.93 1022.40 1027.12 1030.16 1032.91 1034.56 1035.60 1037.25 6999.00
  15  6999.00 6999.00 1038.57 1039.39 1038.35 1039.05 6999.00 6999.00 6999.00 6999.00

 HEAD WILL BE SAVED ON UNIT   58 AT END OF TIME STEP   15, STRESS PERIOD    8
1
  VOLUMETRIC BUDGET FOR ENTIRE MODEL AT END OF TIME STEP   15, STRESS PERIOD   8
  ------------------------------------------------------------------------------

     CUMULATIVE VOLUMES      L**3       RATES FOR THIS TIME STEP      L**3/T
     ------------------                 ------------------------

           IN:                                      IN:
           ---                                      ---
             STORAGE     =    71965968.0000               STORAGE     =           3.8988
       CONSTANT HEAD     =           0.0000         CONSTANT HEAD     =           0.0000
               WELLS     =           0.0000                 WELLS     =           0.0000
     HEAD DEP BOUNDS     =     4351542.0000       HEAD DEP BOUNDS     =           0.2058
      STREAM LEAKAGE     =   833623552.0000        STREAM LEAKAGE     =          37.8880
        UZF RECHARGE     =   928439424.0000          UZF RECHARGE     =          63.5236
               GW ET     =           0.0000                 GW ET     =           0.0000
     SURFACE LEAKAGE     =           0.0000       SURFACE LEAKAGE     =           0.0000

                TOTAL IN =  1838380544.0000                  TOTAL IN =         105.5162

          OUT:                                     OUT:
          ----                                     ----
             STORAGE     =   803802304.0000               STORAGE     =          70.5877
       CONSTANT HEAD     =           0.0000         CONSTANT HEAD     =           0.0000
               WELLS     =   289079936.0000                 WELLS     =           0.0000
     HEAD DEP BOUNDS     =     5963264.0000       HEAD DEP BOUNDS     =           0.2863
      STREAM LEAKAGE     =   172782688.0000        STREAM LEAKAGE     =          10.0436
        UZF RECHARGE     =           0.0000          UZF RECHARGE     =           0.0000
               GW ET     =   499121440.0000                 GW ET     =          24.5968
     SURFACE LEAKAGE     =    67618264.0000       SURFACE LEAKAGE     =           0.0000

               TOTAL OUT =  1838367872.0000                 TOTAL OUT =         105.5144

                IN - OUT =       12672.0000                  IN - OUT =       1.8005E-03

     PERCENT DISCREPANCY =           0.00         PERCENT DISCREPANCY =           0.00






         TIME SUMMARY AT END OF TIME STEP   15 IN STRESS PERIOD    8
                    SECONDS     MINUTES      HOURS       DAYS        YEARS
                    -----------------------------------------------------------
   TIME STEP LENGTH 3.14103E+05  5235.0      87.251      3.6354     9.95332E-03
 STRESS PERIOD TIME 2.62800E+06  43800.      730.00      30.417     8.32763E-02
         TOTAL TIME 2.10240E+07 3.50400E+05  5840.0      243.33     0.66621    
1
1
                            STRESS PERIOD NO.    9, LENGTH =   2628000.    
                            -----------------------------------------------

                              NUMBER OF TIME STEPS =    15

                               MULTIPLIER FOR DELT =     1.100

                            INITIAL TIME STEP SIZE =   82713.07    

 WELL NO.  LAYER   ROW   COL   STRESS RATE         
 --------------------------------------------------
      1      1      6      4      -1.000    
      2      1      6      5      -1.000    
      3      1      7      4      -1.000    
      4      1      7      5      -1.000    
      5      1      8      4      -1.000    
      6      1      8      5      -1.000    
      7      1      9      4      -1.000    
      8      1      9      5      -1.000    
      9      1     10      4      -1.000    
     10      1     10      5      -1.000    

     10 WELLS

 REUSING NON-PARAMETER GHB CELLS FROM LAST STRESS PERIOD

      2 GHB CELLS

 REUSING STREAM SEGMENT DATA FROM LAST STRESS PERIOD



            AREAL INFILTRATION RATE
 READING ON UNIT   19 WITH FORMAT: (10F4.0)            

            1           2           3           4           5           6           7           8           9          10
 ........................................................................................................................
   1   3.0000E-09  6.0000E-09   0.000       0.000       0.000       0.000       0.000       0.000       0.000       0.000    
   2   6.0000E-09  3.0000E-09  6.0000E-09   0.000       0.000      2.4000E-08  2.4000E-08  1.5000E-08   0.000       0.000    
   3    0.000      1.5000E-08  3.0000E-09  3.0000E-09  2.4000E-08  2.4000E-08  1.5000E-08  1.5000E-08   0.000       0.000    
   4   2.4000E-08  1.5000E-08  3.0000E-09  3.0000E-09  3.0000E-09  3.0000E-09  3.0000E-09  3.0000E-09  6.0000E-09   0.000    
   5   2.4000E-08  1.5000E-08  3.0000E-09  3.0000E-09  3.0000E-09  3.0000E-09  3.0000E-09  3.0000E-09  3.0000E-09  3.0000E-09
   6   2.4000E-08  1.5000E-08  1.5000E-08  6.0000E-09  6.0000E-09  3.0000E-09  3.0000E-09  3.0000E-09  3.0000E-09  1.5000E-08
   7   2.4000E-08  1.5000E-08  1.5000E-08  6.0000E-09  6.0000E-09  3.0000E-09  3.0000E-09  6.0000E-09  6.0000E-09   0.000    
   8    0.000      1.5000E-08  1.5000E-08  6.0000E-09  6.0000E-09  3.0000E-09  3.0000E-09  6.0000E-09  1.5000E-08   0.000    
   9    0.000      1.5000E-08  1.5000E-08  6.0000E-09  6.0000E-09  3.0000E-09  3.0000E-09  6.0000E-09  1.5000E-08   0.000    
  10    0.000      1.5000E-08  1.5000E-08  6.0000E-09  6.0000E-09  3.0000E-09  3.0000E-09  6.0000E-09  1.5000E-08  2.4000E-08
  11    0.000      3.0000E-09  3.0000E-09  3.0000E-09  3.0000E-09  3.0000E-09  3.0000E-09  6.0000E-09  1.5000E-08   0.000    
  12   3.0000E-09  3.0000E-09  3.0000E-09  3.0000E-09  3.0000E-09  3.0000E-09  3.0000E-09  3.0000E-09  6.0000E-09   0.000    
  13   3.0000E-09  3.0000E-09  6.0000E-09  6.0000E-09  6.0000E-09  6.0000E-09  6.0000E-09  3.0000E-09  3.0000E-09   0.000    
  14    0.000      6.0000E-09  1.5000E-08  1.5000E-08  1.5000E-08  1.5000E-08  1.5000E-08  6.0000E-09  3.0000E-09   0.000    
  15    0.000       0.000      2.4000E-08  2.4000E-08  2.4000E-08  2.4000E-08   0.000       0.000       0.000       0.000    

USING ET RATE FROM PREVIOUS STRESS PERIOD. CURRENT PERIOD IS:       9

 USING ET EXTINCTION DEPTH FROM PREVIOUS STRESS PERIOD. CURRENT PERIOD IS:       9

 USING EXTINCTION WATER CONTENT FROM PREVIOUS STRESS PERIOD. CURRENT PERIOD IS:       9
 
 SOLVING FOR HEAD 
                                                   Max.-Head-Change                         Max.-Flux-Residual
  Residual-Control   Outer-Iter.   Inner-Iter.     Column Row Layer    Maximum-Head-Change  Column Row Layer    Maximum-Flux-Residual          L2-NORM 
          0                 1           2            10   10     2      -0.1703900061E+00       9   10    1         0.1539312153E+01      0.5186037372E+01
          0                 2           2             9   10     1       0.2078930775E-01       9   10    1         0.5722066560E+00      0.1487033147E+01
          0                 3           2             9   10     1       0.7793066813E-02       9   10    1         0.2148369616E+00      0.5110378246E+00
          0                 4           2             9   10     1       0.2921087591E-02       9   10    1         0.8056397629E-01      0.1802435860E+00
          0                 5           1             9   10     1       0.1094855426E-02       9   10    1         0.3019426011E-01      0.6416009083E-01
          0                 6           1             9   10     1       0.4103466058E-03       9   10    1         0.1131734106E-01      0.2299652525E-01
          0                 7           1             9   10     1       0.1537909498E-03       9   10    1         0.4241618369E-02      0.8289479076E-02
          0                 8           1             9   10     1       0.5763676610E-04       9   10    1         0.1589679607E-02      0.3002961144E-02

    ------------------------------------------------
       NWT REQUIRED            8 OUTER ITERATIONS 
       AND A TOTAL OF         12 INNER ITERATIONS.
    ------------------------------------------------

 NO OUTPUT CONTROL FOR STRESS PERIOD    9   TIME STEP    1
 
 SOLVING FOR HEAD 
                                                   Max.-Head-Change                         Max.-Flux-Residual
  Residual-Control   Outer-Iter.   Inner-Iter.     Column Row Layer    Maximum-Head-Change  Column Row Layer    Maximum-Flux-Residual          L2-NORM 
          0                 1           2             9   10     1       0.6060411948E-01       9   10    1         0.1519740499E+01      0.5204107853E+01
          0                 2           2             9   10     1       0.2271222809E-01       9   10    1         0.5694699021E+00      0.1498980767E+01
          0                 3           2             9   10     1       0.8510705761E-02       9   10    1         0.2134233493E+00      0.5160974144E+00
          0                 4           2             9   10     1       0.3188858359E-02       9   10    1         0.7997122362E-01      0.1823447671E+00
          0                 5           2             9   10     1       0.1194752650E-02       9   10    1         0.2996380528E-01      0.6501184969E-01
          0                 6           1             9   10     1       0.4476105261E-03       9   10    1         0.1122624401E-01      0.2333273958E-01
          0                 7           1             9   10     1       0.1676898836E-03       9   10    1         0.4205839874E-02      0.8419417255E-02
          0                 8           1             9   10     1       0.6282044478E-04       9   10    1         0.1575637118E-02      0.3052249476E-02

    ------------------------------------------------
       NWT REQUIRED            8 OUTER ITERATIONS 
       AND A TOTAL OF         13 INNER ITERATIONS.
    ------------------------------------------------

 NO OUTPUT CONTROL FOR STRESS PERIOD    9   TIME STEP    2
 
 SOLVING FOR HEAD 
                                                   Max.-Head-Change                         Max.-Flux-Residual
  Residual-Control   Outer-Iter.   Inner-Iter.     Column Row Layer    Maximum-Head-Change  Column Row Layer    Maximum-Flux-Residual          L2-NORM 
          0                 1           2             1    4     1       0.6674479224E-01       1    4    1         0.1519296836E+01      0.5454219736E+01
          0                 2           2             1    4     1       0.2888182066E-01       1    4    1         0.6582719201E+00      0.1654213135E+01
          0                 3           2             1    4     1       0.1249512130E-01       1    4    1         0.2847642089E+00      0.5948324830E+00
          0                 4           2             1    4     1       0.5404924385E-02       1    4    1         0.1231998507E+00      0.2214088426E+00
          0                 5           2             1    4     1       0.2337700493E-02       1    4    1         0.5328955783E-01      0.8427913911E-01
          0                 6           1             1    4     1       0.1010998349E-02       1    4    1         0.2304803628E-01      0.3277466983E-01
          0                 7           1             1    4     1       0.4372032623E-03       1    4    1         0.9967553407E-02      0.1300531050E-01
          0                 8           1             1    4     1       0.1890577379E-03       1    4    1         0.4310389616E-02      0.5255622225E-02
          0                 9           1             1    4     1       0.8175017788E-04       1    4    1         0.1863904662E-02      0.2157376234E-02

    ------------------------------------------------
       NWT REQUIRED            9 OUTER ITERATIONS 
       AND A TOTAL OF         14 INNER ITERATIONS.
    ------------------------------------------------

 NO OUTPUT CONTROL FOR STRESS PERIOD    9   TIME STEP    3
 
 SOLVING FOR HEAD 
                                                   Max.-Head-Change                         Max.-Flux-Residual
  Residual-Control   Outer-Iter.   Inner-Iter.     Column Row Layer    Maximum-Head-Change  Column Row Layer    Maximum-Flux-Residual          L2-NORM 
          0                 1           2             1    4     1       0.7720547364E-01       1    4    1         0.1596940452E+01      0.5523479588E+01
          0                 2           2             1    4     1       0.3339602421E-01       1    4    1         0.6922884058E+00      0.1672869251E+01
          0                 3           2             1    4     1       0.1444255333E-01       1    4    1         0.2993060053E+00      0.5943397112E+00
          0                 4           2             1    4     1       0.6244850028E-02       1    4    1         0.1294473970E+00      0.2191843914E+00
          0                 5           2             1    4     1       0.2699895137E-02       1    4    1         0.5596913611E-01      0.8301679318E-01
          0                 6           1             1    4     1       0.1167163497E-02       1    4    1         0.2419728339E-01      0.3227103738E-01
          0                 7           1             1    4     1       0.5045289165E-03       1    4    1         0.1046029177E-01      0.1285030811E-01
          0                 8           1             1    4     1       0.2180806801E-03       1    4    1         0.4521608076E-02      0.5224858949E-02
          0                 9           1             1    4     1       0.9426066473E-04       1    4    1         0.1954428999E-02      0.2160606524E-02

    ------------------------------------------------
       NWT REQUIRED            9 OUTER ITERATIONS 
       AND A TOTAL OF         14 INNER ITERATIONS.
    ------------------------------------------------

 NO OUTPUT CONTROL FOR STRESS PERIOD    9   TIME STEP    4
 
 SOLVING FOR HEAD 
                                                   Max.-Head-Change                         Max.-Flux-Residual
  Residual-Control   Outer-Iter.   Inner-Iter.     Column Row Layer    Maximum-Head-Change  Column Row Layer    Maximum-Flux-Residual          L2-NORM 
          0                 1           2             1    4     1       0.8446666585E-01       1    4    1         0.1588470831E+01      0.5351781863E+01
          0                 2           2             1    4     1       0.3652375265E-01       1    4    1         0.6885263411E+00      0.1585846950E+01
          0                 3           2             1    4     1       0.1578894633E-01       1    4    1         0.2975565193E+00      0.5623762910E+00
          0                 4           2             1    4     1       0.6824167379E-02       1    4    1         0.1286405507E+00      0.2080884353E+00
          0                 5           2             1    4     1       0.2949077129E-02       1    4    1         0.5559668847E-01      0.7929373880E-01
          0                 6           1             1    4     1       0.1274317832E-02       1    4    1         0.2402578390E-01      0.3104798680E-01
          0                 7           1             1    4     1       0.5505993715E-03       1    4    1         0.1038151443E-01      0.1245170432E-01
          0                 8           1             1    4     1       0.2378856400E-03       1    4    1         0.4485520724E-02      0.5093966348E-02
          0                 9           1             1    4     1       0.1027735708E-03       1    4    1         0.1937942350E-02      0.2116579896E-02
          0                10           1             1    4     1       0.4439969240E-04       1    4    1         0.8372413320E-03      0.8897193096E-03

    ------------------------------------------------
       NWT REQUIRED           10 OUTER ITERATIONS 
       AND A TOTAL OF         15 INNER ITERATIONS.
    ------------------------------------------------

 OUTPUT CONTROL FOR STRESS PERIOD    9   TIME STEP    5
    PRINT BUDGET
    SAVE BUDGET

            WELLS   PERIOD    9   STEP   5
 WELL      1   LAYER   1   ROW     6   COL     4   RATE    -1.00000    
 WELL      2   LAYER   1   ROW     6   COL     5   RATE    -1.00000    
 WELL      3   LAYER   1   ROW     7   COL     4   RATE    -1.00000    
 WELL      4   LAYER   1   ROW     7   COL     5   RATE    -1.00000    
 WELL      5   LAYER   1   ROW     8   COL     4   RATE    -1.00000    
 WELL      6   LAYER   1   ROW     8   COL     5   RATE    -1.00000    
 WELL      7   LAYER   1   ROW     9   COL     4   RATE    -1.00000    
 WELL      8   LAYER   1   ROW     9   COL     5   RATE    -1.00000    
 WELL      9   LAYER   1   ROW    10   COL     4   RATE    -1.00000    
 WELL     10   LAYER   1   ROW    10   COL     5   RATE    -1.00000    

  HEAD DEP BOUNDS   PERIOD    9   STEP     5
 BOUNDARY      1   LAYER   1   ROW    13   COL     1   RATE   -0.285688    
 BOUNDARY      2   LAYER   1   ROW    14   COL     9   RATE    0.205533    



 STREAM LISTING     PERIOD      9   STEP        5

 LAYER ROW COL. STREAM  RCH.  FLOW INTO     FLOW TO   FLOW OUT OF   OVRLND.     DIRECT     STREAM       STREAM     STREAM     STREAM   STREAMBED  STREAMBED
                SEG.NO.  NO.  STRM. RCH.    AQUIFER    STRM. RCH.    RUNOFF     PRECIP       ET          HEAD       DEPTH      WIDTH   CONDCTNC.   GRADIENT

   1    1    1     1     1    2.5000E+01  1.1712E+00   2.3829E+01  0.000E+00  0.000E+00  0.000E+00  1.09422E+03  1.171E+00  1.295E+01  5.825E-01  6.701E-01
   1    2    2     1     2    2.3829E+01  2.5927E+00   2.1236E+01  0.000E+00  0.000E+00  0.000E+00  1.08920E+03  1.142E+00  1.256E+01  8.790E-01  9.832E-01
   1    3    3     1     3    2.1236E+01  2.9324E+00   1.8304E+01  0.000E+00  0.000E+00  0.000E+00  1.08352E+03  1.096E+00  1.193E+01  7.159E-01  1.365E+00
   1    3    4     1     4    1.8304E+01  2.4923E+00   1.5811E+01  0.000E+00  0.000E+00  0.000E+00  1.07846E+03  1.050E+00  1.109E+01  6.153E-01  1.350E+00
   1    4    5     2     1    5.8115E+00  2.6755E+00   3.1360E+00  0.000E+00  0.000E+00  0.000E+00  1.07236E+03  4.301E-01  1.200E+01  7.800E-01  1.143E+00
   1    5    6     2     2    3.1360E+00  1.9664E+00   1.1696E+00  0.000E+00  0.000E+00  0.000E+00  1.06679E+03  2.773E-01  1.200E+01  6.000E-01  1.092E+00
   1    6    6     2     3    1.1696E+00  1.1696E+00   0.0000E+00  0.000E+00  0.000E+00  0.000E+00  1.06184E+03  4.327E-02  1.200E+01  6.000E-01  1.014E+00
   1    7    6     2     4    0.0000E+00  0.0000E+00   0.0000E+00  0.000E+00  0.000E+00  0.000E+00  1.05708E+03  0.000E+00  1.200E+01  6.000E-01  1.000E+00
   1    8    6     2     5    0.0000E+00  0.0000E+00   0.0000E+00  0.000E+00  0.000E+00  0.000E+00  1.05236E+03  0.000E+00  1.200E+01  6.000E-01  1.000E+00
   1    3    5     3     1    1.0000E+01  1.4218E+00   8.5782E+00  0.000E+00  0.000E+00  0.000E+00  1.07555E+03  1.909E+00  9.636E+00  7.227E-01  9.836E-01
   1    3    6     3     2    8.5782E+00  1.0467E+00   7.5315E+00  0.000E+00  0.000E+00  0.000E+00  1.07264E+03  1.727E+00  8.909E+00  6.682E-01  7.833E-01
   1    3    7     3     3    7.5315E+00  6.7700E-01   6.8545E+00  0.000E+00  0.000E+00  0.000E+00  1.06987E+03  1.555E+00  8.218E+00  5.547E-01  6.102E-01
   1    4    8     3     4    6.8545E+00  1.4060E+00   5.4485E+00  0.000E+00  0.000E+00  0.000E+00  1.06682E+03  1.364E+00  7.455E+00  6.709E-01  1.048E+00
   1    5    8     3     5    5.4485E+00  1.4902E+00   3.9583E+00  0.000E+00  0.000E+00  0.000E+00  1.06362E+03  1.164E+00  6.655E+00  4.991E-01  1.493E+00
   1    6    8     3     6    3.9583E+00  5.5980E-01   3.3985E+00  0.000E+00  0.000E+00  0.000E+00  1.06158E+03  1.036E+00  6.145E+00  1.844E-01  1.518E+00
   1    5   10     4     1    1.0000E+01  9.0525E-01   9.0947E+00  0.000E+00  0.000E+00  0.000E+00  1.07835E+03  6.210E-01  1.000E+01  2.500E-01  1.207E+00
   1    5    9     4     2    9.0947E+00  1.7835E+00   7.3113E+00  0.000E+00  0.000E+00  0.000E+00  1.07148E+03  5.670E-01  1.000E+01  5.000E-01  1.189E+00
   1    6    8     4     3    7.3113E+00  1.2257E+00   6.0855E+00  0.000E+00  0.000E+00  0.000E+00  1.06368E+03  5.021E-01  1.000E+01  3.500E-01  1.167E+00
   1    6    8     5     1    9.4840E+00  2.9443E-01   9.1896E+00  0.000E+00  0.000E+00  0.000E+00  1.05866E+03  6.557E-01  1.452E+01  5.807E-01  1.690E-01
   1    7    7     5     2    9.1896E+00  1.3454E+00   7.8442E+00  0.000E+00  0.000E+00  0.000E+00  1.05413E+03  6.349E-01  1.374E+01  6.869E-01  6.528E-01
   1    8    7     5     3    7.8442E+00  9.8780E-01   6.8564E+00  0.000E+00  0.000E+00  0.000E+00  1.04985E+03  6.030E-01  1.258E+01  4.402E-01  7.480E-01
   1    8    6     5     4    6.8564E+00  9.6982E-01   5.8866E+00  0.000E+00  0.000E+00  0.000E+00  1.04682E+03  5.736E-01  1.154E+01  2.886E-01  1.120E+00
   1    9    6     6     1    5.8866E+00  1.8979E+00   3.9887E+00  0.000E+00  0.000E+00  0.000E+00  1.04319E+03  4.614E-01  1.200E+01  6.000E-01  1.054E+00
   1   10    7     6     2    3.9887E+00  1.1807E+00   2.8080E+00  0.000E+00  0.000E+00  0.000E+00  1.03855E+03  3.688E-01  1.200E+01  6.000E-01  6.559E-01
   1   11    7     6     3    2.8080E+00  8.2961E-01   1.9784E+00  0.000E+00  0.000E+00  0.000E+00  1.03394E+03  2.988E-01  1.200E+01  6.000E-01  4.609E-01
   1   12    7     6     4    1.9784E+00  3.7970E-01   1.5987E+00  0.000E+00  0.000E+00  0.000E+00  1.02934E+03  2.509E-01  1.200E+01  6.000E-01  2.109E-01
   1   13    7     6     5    1.5987E+00 -7.8648E-01   2.3852E+00  0.000E+00  0.000E+00  0.000E+00  1.02618E+03  2.676E-01  1.200E+01  2.400E-01 -1.092E+00
   1   14    9     7     1    1.5000E+02  1.5469E+00   1.4845E+02  0.000E+00  0.000E+00  0.000E+00  1.03987E+03  2.287E+00  5.529E+01  5.593E+00  9.220E-02
   1   13    8     7     2    1.4845E+02  1.5183E+00   1.4693E+02  0.000E+00  0.000E+00  0.000E+00  1.03478E+03  2.279E+00  5.526E+01  6.148E+00  8.232E-02
   1   13    7     7     3    1.4693E+02  1.3238E+00   1.4561E+02  0.000E+00  0.000E+00  0.000E+00  1.02969E+03  2.271E+00  5.522E+01  5.585E+00  7.901E-02
   1   13    6     8     1    1.4800E+02  4.3199E-02   1.4795E+02  0.000E+00  0.000E+00  0.000E+00  1.02468E+03  2.803E+00  4.064E+01  4.141E+00  3.477E-03
   1   13    5     8     2    1.4795E+02 -6.9901E-01   1.4865E+02  0.000E+00  0.000E+00  0.000E+00  1.01843E+03  2.805E+00  4.067E+01  4.144E+00 -5.622E-02
   1   13    4     8     3    1.4865E+02 -1.5695E+00   1.5022E+02  0.000E+00  0.000E+00  0.000E+00  1.01219E+03  2.813E+00  4.079E+01  4.156E+00 -1.259E-01
   1   13    3     8     4    1.5022E+02 -2.2396E+00   1.5246E+02  0.000E+00  0.000E+00  0.000E+00  1.00595E+03  2.826E+00  4.098E+01  4.176E+00 -1.788E-01
   1   13    2     8     5    1.5246E+02 -2.2719E+00   1.5473E+02  0.000E+00  0.000E+00  0.000E+00  9.99717E+02  2.842E+00  4.121E+01  4.199E+00 -1.803E-01
   1   13    1     8     6    1.5473E+02 -1.9917E+00   1.5672E+02  0.000E+00  0.000E+00  0.000E+00  9.94732E+02  2.857E+00  4.142E+01  2.533E+00 -2.621E-01



 UBDSV3 SAVING "           GW ET" ON UNIT  61 AT TIME STEP  5, STRESS PERIOD   9
 UBDSV3 SAVING "    UZF RECHARGE" ON UNIT  61 AT TIME STEP  5, STRESS PERIOD   9
 UBDSV3 SAVING " SURFACE LEAKAGE" ON UNIT  61 AT TIME STEP  5, STRESS PERIOD   9
 UBDSV3 SAVING "       HORT+DUNN" ON UNIT  61 AT TIME STEP  5, STRESS PERIOD   9
 UBDSV3 SAVING "  STORAGE CHANGE" ON UNIT  61 AT TIME STEP  5, STRESS PERIOD   9


UNSATURATED ZONE PACKAGE VOLUMETRIC BUDGET FOR  TIME STEP     5 STRESS PERIOD    9
  ------------------------------------------------------------------------------



     CUMULATIVE VOLUMES      L**3       RATES FOR THIS TIME STEP      L**3/T
     ------------------                 ------------------------

           IN:                                      IN:
           ---                                      ---
        INFILTRATION =  1393190391.1572          INFILTRATION =          25.4250

          OUT:                                     OUT:
          ----                                     ----
              UZF ET =        8633.6672                UZF ET =           0.0014
        UZF RECHARGE =   959890507.2868          UZF RECHARGE =          62.8505

            IN - OUT =   433291250.2032              IN - OUT =         -37.4269

          STORAGE:                                 STORAGE:
          --------                                 --------
      STORAGE CHANGE =   434009149.8049        STORAGE CHANGE =         -37.4269

 PERCENT DISCREPANCY IS DIFFERENCE BETWEEN IN-OUT MINUS CHANGE IN STORAGE
 DIVIDED BY THE AVERAGE OF IN AND OUT TIMES 100

 PERCENT DISCREPANCY =          -0.01     PERCENT DISCREPANCY =           0.00






1
  VOLUMETRIC BUDGET FOR ENTIRE MODEL AT END OF TIME STEP    5, STRESS PERIOD   9
  ------------------------------------------------------------------------------

     CUMULATIVE VOLUMES      L**3       RATES FOR THIS TIME STEP      L**3/T
     ------------------                 ------------------------

           IN:                                      IN:
           ---                                      ---
             STORAGE     =    73664120.0000               STORAGE     =           2.9820
       CONSTANT HEAD     =           0.0000         CONSTANT HEAD     =           0.0000
               WELLS     =           0.0000                 WELLS     =           0.0000
     HEAD DEP BOUNDS     =     4455381.5000       HEAD DEP BOUNDS     =           0.2055
      STREAM LEAKAGE     =   852733248.0000        STREAM LEAKAGE     =          37.8335
        UZF RECHARGE     =   959890688.0000          UZF RECHARGE     =          62.8505
               GW ET     =           0.0000                 GW ET     =           0.0000
     SURFACE LEAKAGE     =           0.0000       SURFACE LEAKAGE     =           0.0000

                TOTAL IN =  1890743424.0000                  TOTAL IN =         103.8716

          OUT:                                     OUT:
          ----                                     ----
             STORAGE     =   833627392.0000               STORAGE     =          59.3767
       CONSTANT HEAD     =           0.0000         CONSTANT HEAD     =           0.0000
               WELLS     =   294129664.0000                 WELLS     =          10.0000
     HEAD DEP BOUNDS     =     6107627.5000       HEAD DEP BOUNDS     =           0.2857
      STREAM LEAKAGE     =   177688704.0000        STREAM LEAKAGE     =           9.5581
        UZF RECHARGE     =           0.0000          UZF RECHARGE     =           0.0000
               GW ET     =   511557888.0000                 GW ET     =          24.6503
     SURFACE LEAKAGE     =    67618264.0000       SURFACE LEAKAGE     =           0.0000

               TOTAL OUT =  1890729600.0000                 TOTAL OUT =         103.8707

                IN - OUT =       13824.0000                  IN - OUT =       8.4686E-04

     PERCENT DISCREPANCY =           0.00         PERCENT DISCREPANCY =           0.00






         TIME SUMMARY AT END OF TIME STEP    5 IN STRESS PERIOD    9
                    SECONDS     MINUTES      HOURS       DAYS        YEARS
                    -----------------------------------------------------------
   TIME STEP LENGTH 1.21100E+05  2018.3      33.639      1.4016     3.83743E-03
 STRESS PERIOD TIME 5.04972E+05  8416.2      140.27      5.8446     1.60016E-02
         TOTAL TIME 2.15290E+07 3.58816E+05  5980.3      249.18     0.68221    
1
 
 SOLVING FOR HEAD 
                                                   Max.-Head-Change                         Max.-Flux-Residual
  Residual-Control   Outer-Iter.   Inner-Iter.     Column Row Layer    Maximum-Head-Change  Column Row Layer    Maximum-Flux-Residual          L2-NORM 
          0                 1           2             1    4     1       0.9235749877E-01       1    4    1         0.1579420837E+01      0.5228934954E+01
          0                 2           2             1    4     1       0.3991900356E-01       1    4    1         0.6843612178E+00      0.1526655840E+01
          0                 3           2             1    4     1       0.1724896305E-01       1    4    1         0.2956278485E+00      0.5395465214E+00
          0                 4           2             1    4     1       0.7451725918E-02       1    4    1         0.1277492013E+00      0.1998148620E+00
          0                 5           2             1    4     1       0.3218732828E-02       1    4    1         0.5518550313E-01      0.7640334687E-01
          0                 6           1             1    4     1       0.1390157679E-02       1    4    1         0.2383659974E-01      0.3005948328E-01
          0                 7           1             1    4     1       0.6003528858E-03       1    4    1         0.1029471277E-01      0.1211562387E-01
          0                 8           1             1    4     1       0.2592517073E-03       1    4    1         0.4445805646E-02      0.4978520225E-02
          0                 9           1             1    4     1       0.1119478769E-03       1    4    1         0.1919820393E-02      0.2075904817E-02
          0                10           1             1    4     1       0.4833862995E-04       1    4    1         0.8289935790E-03      0.8748525100E-03

    ------------------------------------------------
       NWT REQUIRED           10 OUTER ITERATIONS 
       AND A TOTAL OF         15 INNER ITERATIONS.
    ------------------------------------------------

 NO OUTPUT CONTROL FOR STRESS PERIOD    9   TIME STEP    6
 
 SOLVING FOR HEAD 
                                                   Max.-Head-Change                         Max.-Flux-Residual
  Residual-Control   Outer-Iter.   Inner-Iter.     Column Row Layer    Maximum-Head-Change  Column Row Layer    Maximum-Flux-Residual          L2-NORM 
          0                 1           2             1    4     1       0.1009260540E+00       1    4    1         0.1569455046E+01      0.5345216008E+01
          0                 2           2             1    4     1       0.4360747272E-01       1    4    1         0.6798250574E+00      0.1630089712E+01
          0                 3           2             1    4     1       0.1883593211E-01       1    4    1         0.2935654919E+00      0.6010906395E+00
          0                 4           2             1    4     1       0.8134285222E-02       1    4    1         0.1268118328E+00      0.2322162335E+00
          0                 5           2             1    4     1       0.3512229685E-02       1    4    1         0.5476010166E-01      0.9237812758E-01
          0                 6           1             1    4     1       0.1516336352E-02       1    4    1         0.2364386789E-01      0.3760282243E-01
          0                 7           1             1    4     1       0.6545913869E-03       1    4    1         0.1020755265E-01      0.1557371756E-01
          0                 8           1             1    4     1       0.2825638721E-03       1    4    1         0.4406460161E-02      0.6531880449E-02
          0                 9           1             1    4     1       0.1219667918E-03       1    4    1         0.1902090379E-02      0.2764088970E-02
          0                10           1             1    4     1       0.5264418326E-04       1    4    1         0.8210173630E-03      0.1176925570E-02

    ------------------------------------------------
       NWT REQUIRED           10 OUTER ITERATIONS 
       AND A TOTAL OF         15 INNER ITERATIONS.
    ------------------------------------------------

 NO OUTPUT CONTROL FOR STRESS PERIOD    9   TIME STEP    7
 
 SOLVING FOR HEAD 
                                                   Max.-Head-Change                         Max.-Flux-Residual
  Residual-Control   Outer-Iter.   Inner-Iter.     Column Row Layer    Maximum-Head-Change  Column Row Layer    Maximum-Flux-Residual          L2-NORM 
          0                 1           2             6   15     1       0.1231739466E+00       6   15    1         0.1741845979E+01      0.5683482127E+01
          0                 2           2             6   15     1       0.5328570273E-01       6   15    1         0.7542003196E+00      0.1850589974E+01
          0                 3           2             6   15     1       0.2305111112E-01       6   15    1         0.3262067655E+00      0.7170119434E+00
          0                 4           2             6   15     1       0.9971631601E-02       6   15    1         0.1411214201E+00      0.2891483894E+00
          0                 5           2             6   15     1       0.4313561589E-02       6   15    1         0.6104667675E-01      0.1192265672E+00
          0                 6           2             6   15     1       0.1865961388E-02       6   15    1         0.2640780144E-01      0.4991807475E-01
          0                 7           1             6   15     1       0.8071739895E-03       6   15    1         0.1142347386E-01      0.2111710448E-01
          0                 8           1             6   15     1       0.3491645965E-03       6   15    1         0.4941541121E-02      0.8995622925E-02
          0                 9           1             6   15     1       0.1510400952E-03       6   15    1         0.2137593934E-02      0.3849862465E-02
          0                10           1             6   15     1       0.6533616219E-04       6   15    1         0.9246706958E-03      0.1652744074E-02

    ------------------------------------------------
       NWT REQUIRED           10 OUTER ITERATIONS 
       AND A TOTAL OF         16 INNER ITERATIONS.
    ------------------------------------------------

 NO OUTPUT CONTROL FOR STRESS PERIOD    9   TIME STEP    8
 
 SOLVING FOR HEAD 
                                                   Max.-Head-Change                         Max.-Flux-Residual
  Residual-Control   Outer-Iter.   Inner-Iter.     Column Row Layer    Maximum-Head-Change  Column Row Layer    Maximum-Flux-Residual          L2-NORM 
          0                 1           2             5   15     1       0.1355820008E+00       5   15    1         0.1745791632E+01      0.5995837643E+01
          0                 2           2             5   15     1       0.5856685987E-01       5   15    1         0.7544311580E+00      0.2038182989E+01
          0                 3           2             5   15     1       0.2529737820E-01       5   15    1         0.3258583597E+00      0.8083616003E+00
          0                 4           2             6   15     1       0.1092718724E-01       5   15    1         0.1407531600E+00      0.3316594236E+00
          0                 5           2             6   15     1       0.4729123478E-02       6   15    1         0.6082038796E-01      0.1385179793E+00
          0                 6           2             6   15     1       0.2046670256E-02       6   15    1         0.2632220836E-01      0.5853091637E-01
          0                 7           1             6   15     1       0.8857498400E-03       6   15    1         0.1139169354E-01      0.2492110804E-01
          0                 8           1             6   15     1       0.3833283646E-03       6   15    1         0.4930045224E-02      0.1066376245E-01
          0                 9           1             6   15     1       0.1658929603E-03       6   15    1         0.2133586068E-02      0.4577910052E-02
          0                10           1             6   15     1       0.7179304815E-04       6   15    1         0.9233506362E-03      0.1969486400E-02

    ------------------------------------------------
       NWT REQUIRED           10 OUTER ITERATIONS 
       AND A TOTAL OF         16 INNER ITERATIONS.
    ------------------------------------------------

 NO OUTPUT CONTROL FOR STRESS PERIOD    9   TIME STEP    9
 
 SOLVING FOR HEAD 
                                                   Max.-Head-Change                         Max.-Flux-Residual
  Residual-Control   Outer-Iter.   Inner-Iter.     Column Row Layer    Maximum-Head-Change  Column Row Layer    Maximum-Flux-Residual          L2-NORM 
          0                 1           2             5   15     1       0.1478068756E+00       5   15    1         0.1730307421E+01      0.5945925123E+01
          0                 2           2             6   15     1       0.6382543496E-01       5   15    1         0.7476731986E+00      0.2011421476E+01
          0                 3           2             6   15     1       0.2761429164E-01       6   15    1         0.3229150397E+00      0.7948608823E+00
          0                 4           2             6   15     1       0.1194712695E-01       6   15    1         0.1397216540E+00      0.3250067022E+00
          0                 5           2             6   15     1       0.5168748383E-02       6   15    1         0.6044820115E-01      0.1353036727E+00
          0                 6           2             6   15     1       0.2236152697E-02       6   15    1         0.2615207281E-01      0.5700542966E-01
          0                 7           1             6   15     1       0.9674150629E-03       6   15    1         0.1131411977E-01      0.2420652519E-01
          0                 8           1             6   15     1       0.4185239881E-03       6   15    1         0.4894760643E-02      0.1033217664E-01
          0                 9           1             6   15     1       0.1810608237E-03       6   15    1         0.2117572365E-02      0.4425099792E-02
          0                10           1             6   15     1       0.7832954745E-04       6   15    1         0.9160977027E-03      0.1899429951E-02

    ------------------------------------------------
       NWT REQUIRED           10 OUTER ITERATIONS 
       AND A TOTAL OF         16 INNER ITERATIONS.
    ------------------------------------------------

 OUTPUT CONTROL FOR STRESS PERIOD    9   TIME STEP   10
    PRINT BUDGET
    SAVE BUDGET

            WELLS   PERIOD    9   STEP  10
 WELL      1   LAYER   1   ROW     6   COL     4   RATE    -1.00000    
 WELL      2   LAYER   1   ROW     6   COL     5   RATE    -1.00000    
 WELL      3   LAYER   1   ROW     7   COL     4   RATE    -1.00000    
 WELL      4   LAYER   1   ROW     7   COL     5   RATE    -1.00000    
 WELL      5   LAYER   1   ROW     8   COL     4   RATE    -1.00000    
 WELL      6   LAYER   1   ROW     8   COL     5   RATE    -1.00000    
 WELL      7   LAYER   1   ROW     9   COL     4   RATE    -1.00000    
 WELL      8   LAYER   1   ROW     9   COL     5   RATE    -1.00000    
 WELL      9   LAYER   1   ROW    10   COL     4   RATE    -1.00000    
 WELL     10   LAYER   1   ROW    10   COL     5   RATE    -1.00000    

  HEAD DEP BOUNDS   PERIOD    9   STEP    10
 BOUNDARY      1   LAYER   1   ROW    13   COL     1   RATE   -0.285225    
 BOUNDARY      2   LAYER   1   ROW    14   COL     9   RATE    0.205365    



 STREAM LISTING     PERIOD      9   STEP       10

 LAYER ROW COL. STREAM  RCH.  FLOW INTO     FLOW TO   FLOW OUT OF   OVRLND.     DIRECT     STREAM       STREAM     STREAM     STREAM   STREAMBED  STREAMBED
                SEG.NO.  NO.  STRM. RCH.    AQUIFER    STRM. RCH.    RUNOFF     PRECIP       ET          HEAD       DEPTH      WIDTH   CONDCTNC.   GRADIENT

   1    1    1     1     1    2.5000E+01  1.1669E+00   2.3833E+01  0.000E+00  0.000E+00  0.000E+00  1.09422E+03  1.171E+00  1.295E+01  5.826E-01  6.677E-01
   1    2    2     1     2    2.3833E+01  2.5774E+00   2.1256E+01  0.000E+00  0.000E+00  0.000E+00  1.08920E+03  1.142E+00  1.256E+01  8.791E-01  9.773E-01
   1    3    3     1     3    2.1256E+01  2.9340E+00   1.8322E+01  0.000E+00  0.000E+00  0.000E+00  1.08352E+03  1.097E+00  1.194E+01  7.162E-01  1.366E+00
   1    3    4     1     4    1.8322E+01  2.4937E+00   1.5828E+01  0.000E+00  0.000E+00  0.000E+00  1.07846E+03  1.051E+00  1.109E+01  6.156E-01  1.350E+00
   1    4    5     2     1    5.8280E+00  2.6762E+00   3.1518E+00  0.000E+00  0.000E+00  0.000E+00  1.07236E+03  4.310E-01  1.200E+01  7.800E-01  1.144E+00
   1    5    6     2     2    3.1518E+00  1.9671E+00   1.1847E+00  0.000E+00  0.000E+00  0.000E+00  1.06679E+03  2.785E-01  1.200E+01  6.000E-01  1.093E+00
   1    6    6     2     3    1.1847E+00  1.1847E+00   0.0000E+00  0.000E+00  0.000E+00  0.000E+00  1.06184E+03  4.360E-02  1.200E+01  6.000E-01  1.015E+00
   1    7    6     2     4    0.0000E+00  0.0000E+00   0.0000E+00  0.000E+00  0.000E+00  0.000E+00  1.05708E+03  0.000E+00  1.200E+01  6.000E-01  1.000E+00
   1    8    6     2     5    0.0000E+00  0.0000E+00   0.0000E+00  0.000E+00  0.000E+00  0.000E+00  1.05236E+03  0.000E+00  1.200E+01  6.000E-01  1.000E+00
   1    3    5     3     1    1.0000E+01  1.4047E+00   8.5953E+00  0.000E+00  0.000E+00  0.000E+00  1.07555E+03  1.909E+00  9.636E+00  7.227E-01  9.718E-01
   1    3    6     3     2    8.5953E+00  1.0154E+00   7.5798E+00  0.000E+00  0.000E+00  0.000E+00  1.07264E+03  1.727E+00  8.909E+00  6.682E-01  7.598E-01
   1    3    7     3     3    7.5798E+00  6.5246E-01   6.9274E+00  0.000E+00  0.000E+00  0.000E+00  1.06987E+03  1.555E+00  8.218E+00  5.547E-01  5.881E-01
   1    4    8     3     4    6.9274E+00  1.4100E+00   5.5174E+00  0.000E+00  0.000E+00  0.000E+00  1.06682E+03  1.364E+00  7.455E+00  6.709E-01  1.051E+00
   1    5    8     3     5    5.5174E+00  1.4877E+00   4.0297E+00  0.000E+00  0.000E+00  0.000E+00  1.06362E+03  1.164E+00  6.655E+00  4.991E-01  1.490E+00
   1    6    8     3     6    4.0297E+00  5.5980E-01   3.4699E+00  0.000E+00  0.000E+00  0.000E+00  1.06158E+03  1.036E+00  6.145E+00  1.844E-01  1.518E+00
   1    5   10     4     1    1.0000E+01  9.0525E-01   9.0947E+00  0.000E+00  0.000E+00  0.000E+00  1.07835E+03  6.210E-01  1.000E+01  2.500E-01  1.207E+00
   1    5    9     4     2    9.0947E+00  1.7835E+00   7.3113E+00  0.000E+00  0.000E+00  0.000E+00  1.07148E+03  5.670E-01  1.000E+01  5.000E-01  1.189E+00
   1    6    8     4     3    7.3113E+00  1.2257E+00   6.0855E+00  0.000E+00  0.000E+00  0.000E+00  1.06368E+03  5.021E-01  1.000E+01  3.500E-01  1.167E+00
   1    6    8     5     1    9.5555E+00  2.8091E-01   9.2746E+00  0.000E+00  0.000E+00  0.000E+00  1.05866E+03  6.576E-01  1.459E+01  5.836E-01  1.604E-01
   1    7    7     5     2    9.2746E+00  1.3482E+00   7.9264E+00  0.000E+00  0.000E+00  0.000E+00  1.05414E+03  6.371E-01  1.382E+01  6.910E-01  6.504E-01
   1    8    7     5     3    7.9264E+00  9.8757E-01   6.9388E+00  0.000E+00  0.000E+00  0.000E+00  1.04986E+03  6.054E-01  1.266E+01  4.431E-01  7.429E-01
   1    8    6     5     4    6.9388E+00  9.6516E-01   5.9736E+00  0.000E+00  0.000E+00  0.000E+00  1.04683E+03  5.763E-01  1.164E+01  2.909E-01  1.106E+00
   1    9    6     6     1    5.9736E+00  1.8849E+00   4.0888E+00  0.000E+00  0.000E+00  0.000E+00  1.04319E+03  4.666E-01  1.200E+01  6.000E-01  1.047E+00
   1   10    7     6     2    4.0888E+00  1.1597E+00   2.9291E+00  0.000E+00  0.000E+00  0.000E+00  1.03856E+03  3.759E-01  1.200E+01  6.000E-01  6.443E-01
   1   11    7     6     3    2.9291E+00  8.0720E-01   2.1219E+00  0.000E+00  0.000E+00  0.000E+00  1.03394E+03  3.086E-01  1.200E+01  6.000E-01  4.484E-01
   1   12    7     6     4    2.1219E+00  3.8402E-01   1.7379E+00  0.000E+00  0.000E+00  0.000E+00  1.02935E+03  2.626E-01  1.200E+01  6.000E-01  2.133E-01
   1   13    7     6     5    1.7379E+00 -7.8413E-01   2.5220E+00  0.000E+00  0.000E+00  0.000E+00  1.02619E+03  2.786E-01  1.200E+01  2.400E-01 -1.089E+00
   1   14    9     7     1    1.5000E+02  1.5226E+00   1.4848E+02  0.000E+00  0.000E+00  0.000E+00  1.03987E+03  2.287E+00  5.529E+01  5.593E+00  9.075E-02
   1   13    8     7     2    1.4848E+02  1.5376E+00   1.4694E+02  0.000E+00  0.000E+00  0.000E+00  1.03478E+03  2.279E+00  5.526E+01  6.148E+00  8.337E-02
   1   13    7     7     3    1.4694E+02  1.3176E+00   1.4562E+02  0.000E+00  0.000E+00  0.000E+00  1.02969E+03  2.271E+00  5.522E+01  5.585E+00  7.864E-02
   1   13    6     8     1    1.4814E+02  8.7781E-02   1.4806E+02  0.000E+00  0.000E+00  0.000E+00  1.02468E+03  2.803E+00  4.065E+01  4.142E+00  7.064E-03
   1   13    5     8     2    1.4806E+02 -6.3026E-01   1.4869E+02  0.000E+00  0.000E+00  0.000E+00  1.01843E+03  2.805E+00  4.068E+01  4.145E+00 -5.068E-02
   1   13    4     8     3    1.4869E+02 -1.5054E+00   1.5019E+02  0.000E+00  0.000E+00  0.000E+00  1.01219E+03  2.813E+00  4.079E+01  4.156E+00 -1.207E-01
   1   13    3     8     4    1.5019E+02 -2.1805E+00   1.5237E+02  0.000E+00  0.000E+00  0.000E+00  1.00595E+03  2.826E+00  4.097E+01  4.175E+00 -1.741E-01
   1   13    2     8     5    1.5237E+02 -2.1788E+00   1.5455E+02  0.000E+00  0.000E+00  0.000E+00  9.99716E+02  2.841E+00  4.120E+01  4.198E+00 -1.730E-01
   1   13    1     8     6    1.5455E+02 -1.9633E+00   1.5651E+02  0.000E+00  0.000E+00  0.000E+00  9.94730E+02  2.855E+00  4.140E+01  2.531E+00 -2.585E-01



 UBDSV3 SAVING "           GW ET" ON UNIT  61 AT TIME STEP 10, STRESS PERIOD   9
 UBDSV3 SAVING "    UZF RECHARGE" ON UNIT  61 AT TIME STEP 10, STRESS PERIOD   9
 UBDSV3 SAVING " SURFACE LEAKAGE" ON UNIT  61 AT TIME STEP 10, STRESS PERIOD   9
 UBDSV3 SAVING "       HORT+DUNN" ON UNIT  61 AT TIME STEP 10, STRESS PERIOD   9
 UBDSV3 SAVING "  STORAGE CHANGE" ON UNIT  61 AT TIME STEP 10, STRESS PERIOD   9


UNSATURATED ZONE PACKAGE VOLUMETRIC BUDGET FOR  TIME STEP    10 STRESS PERIOD    9
  ------------------------------------------------------------------------------



     CUMULATIVE VOLUMES      L**3       RATES FOR THIS TIME STEP      L**3/T
     ------------------                 ------------------------

           IN:                                      IN:
           ---                                      ---
        INFILTRATION =  1413867572.7002          INFILTRATION =          25.4250

          OUT:                                     OUT:
          ----                                     ----
              UZF ET =        9775.9532                UZF ET =           0.0014
        UZF RECHARGE =  1014184276.9919          UZF RECHARGE =          69.0692

            IN - OUT =   399673519.7551              IN - OUT =         -43.6456

          STORAGE:                                 STORAGE:
          --------                                 --------
      STORAGE CHANGE =   400410647.6515        STORAGE CHANGE =         -43.5793

 PERCENT DISCREPANCY IS DIFFERENCE BETWEEN IN-OUT MINUS CHANGE IN STORAGE
 DIVIDED BY THE AVERAGE OF IN AND OUT TIMES 100

 PERCENT DISCREPANCY =          -0.01     PERCENT DISCREPANCY =          -0.10






1
  VOLUMETRIC BUDGET FOR ENTIRE MODEL AT END OF TIME STEP   10, STRESS PERIOD   9
  ------------------------------------------------------------------------------

     CUMULATIVE VOLUMES      L**3       RATES FOR THIS TIME STEP      L**3/T
     ------------------                 ------------------------

           IN:                                      IN:
           ---                                      ---
             STORAGE     =    75756312.0000               STORAGE     =           2.3752
       CONSTANT HEAD     =           0.0000         CONSTANT HEAD     =           0.0000
               WELLS     =           0.0000                 WELLS     =           0.0000
     HEAD DEP BOUNDS     =     4622430.5000       HEAD DEP BOUNDS     =           0.2054
      STREAM LEAKAGE     =   883461376.0000        STREAM LEAKAGE     =          37.7277
        UZF RECHARGE     =  1014184448.0000          UZF RECHARGE     =          69.0692
               GW ET     =           0.0000                 GW ET     =           0.0000
     SURFACE LEAKAGE     =           0.0000       SURFACE LEAKAGE     =           0.0000

                TOTAL IN =  1978024576.0000                  TOTAL IN =         109.3775

          OUT:                                     OUT:
          ----                                     ----
             STORAGE     =   884841536.0000               STORAGE     =          65.0893
       CONSTANT HEAD     =           0.0000         CONSTANT HEAD     =           0.0000
               WELLS     =   302262272.0000                 WELLS     =          10.0000
     HEAD DEP BOUNDS     =     6339723.0000       HEAD DEP BOUNDS     =           0.2852
      STREAM LEAKAGE     =   185290064.0000        STREAM LEAKAGE     =           9.2423
        UZF RECHARGE     =           0.0000          UZF RECHARGE     =           0.0000
               GW ET     =   531657472.0000                 GW ET     =          24.7584
     SURFACE LEAKAGE     =    67618264.0000       SURFACE LEAKAGE     =           0.0000

               TOTAL OUT =  1978009344.0000                 TOTAL OUT =         109.3753

                IN - OUT =       15232.0000                  IN - OUT =       2.2049E-03

     PERCENT DISCREPANCY =           0.00         PERCENT DISCREPANCY =           0.00






         TIME SUMMARY AT END OF TIME STEP   10 IN STRESS PERIOD    9
                    SECONDS     MINUTES      HOURS       DAYS        YEARS
                    -----------------------------------------------------------
   TIME STEP LENGTH 1.95033E+05  3250.6      54.176      2.2573     6.18023E-03
 STRESS PERIOD TIME 1.31823E+06  21971.      366.18      15.257     4.17723E-02
         TOTAL TIME 2.23422E+07 3.72370E+05  6206.2      258.59     0.70798    
1
 
 SOLVING FOR HEAD 
                                                   Max.-Head-Change                         Max.-Flux-Residual
  Residual-Control   Outer-Iter.   Inner-Iter.     Column Row Layer    Maximum-Head-Change  Column Row Layer    Maximum-Flux-Residual          L2-NORM 
          0                 1           2             6   15     1       0.1613560655E+00       5   15    1         0.1714158820E+01      0.6037404741E+01
          0                 2           2             6   15     1       0.6978575497E-01       6   15    1         0.7423610451E+00      0.2072144458E+01
          0                 3           2             6   15     1       0.3018106028E-01       6   15    1         0.3209486044E+00      0.8268088694E+00
          0                 4           2             6   15     1       0.1305247425E-01       6   15    1         0.1388158898E+00      0.3405411882E+00
          0                 5           2             6   15     1       0.5644742279E-02       6   15    1         0.6003269992E-01      0.1425171722E+00
          0                 6           2             6   15     1       0.2441123368E-02       6   15    1         0.2596211709E-01      0.6025859230E-01
          0                 7           1             6   15     1       0.1055675897E-02       6   15    1         0.1122753298E-01      0.2564671292E-01
          0                 8           1             6   15     1       0.4565279698E-03       6   15    1         0.4855394310E-02      0.1096236409E-01
          0                 9           1             6   15     1       0.1974242542E-03       6   15    1         0.2099715904E-02      0.4698861716E-02
          0                10           1             6   15     1       0.8537490817E-04       6   15    1         0.9080149368E-03      0.2017834089E-02

    ------------------------------------------------
       NWT REQUIRED           10 OUTER ITERATIONS 
       AND A TOTAL OF         16 INNER ITERATIONS.
    ------------------------------------------------

 NO OUTPUT CONTROL FOR STRESS PERIOD    9   TIME STEP   11
 
 SOLVING FOR HEAD 
                                                   Max.-Head-Change                         Max.-Flux-Residual
  Residual-Control   Outer-Iter.   Inner-Iter.     Column Row Layer    Maximum-Head-Change  Column Row Layer    Maximum-Flux-Residual          L2-NORM 
          0                 1           2             1    7     1       0.1730077811E+00       1    7    1         0.1669761217E+01      0.5870660414E+01
          0                 2           2             1    7     1       0.7476023551E-01       1    7    1         0.7236673629E+00      0.1982951507E+01
          0                 3           2             1    7     1       0.3229312672E-01       1    7    1         0.3125009829E+00      0.7842087439E+00
          0                 4           2             1    7     1       0.1394532460E-01       1    7    1         0.1349963088E+00      0.3203630299E+00
          0                 5           2             1    7     1       0.6020818545E-02       1    7    1         0.5829160935E-01      0.1329837442E+00
          0                 6           2             1    7     1       0.2599031474E-02       1    7    1         0.2516634110E-01      0.5577340234E-01
          0                 7           2             1    7     1       0.1121790150E-02       1    7    1         0.1086332592E-01      0.2354750055E-01
          0                 8           1             1    7     1       0.4841353000E-03       1    7    1         0.4688706955E-02      0.9985295445E-02
          0                 9           1             1    7     1       0.2089223951E-03       1    7    1         0.2023485547E-02      0.4246554610E-02
          0                10           1             1    7     1       0.9015137005E-04       1    7    1         0.8731959269E-03      0.1809517587E-02

    ------------------------------------------------
       NWT REQUIRED           10 OUTER ITERATIONS 
       AND A TOTAL OF         17 INNER ITERATIONS.
    ------------------------------------------------

 NO OUTPUT CONTROL FOR STRESS PERIOD    9   TIME STEP   12
 
 SOLVING FOR HEAD 
                                                   Max.-Head-Change                         Max.-Flux-Residual
  Residual-Control   Outer-Iter.   Inner-Iter.     Column Row Layer    Maximum-Head-Change  Column Row Layer    Maximum-Flux-Residual          L2-NORM 
          0                 1           2             1    7     1       0.1890014505E+00       1    7    1         0.1658987085E+01      0.5612773677E+01
          0                 2           2             1    7     1       0.8161045376E-01       1    7    1         0.7186252273E+00      0.1844568887E+01
          0                 3           2             1    7     1       0.3522205086E-01       1    7    1         0.3100758944E+00      0.7192581822E+00
          0                 4           2             1    7     1       0.1519579330E-01       1    7    1         0.1338328760E+00      0.2901176216E+00
          0                 5           2             1    7     1       0.6553979540E-02       1    7    1         0.5773370372E-01      0.1187596302E+00
          0                 6           2             1    7     1       0.2826067686E-02       1    7    1         0.2489957335E-01      0.4902081164E-01
          0                 7           2             1    7     1       0.1218354009E-02       1    7    1         0.1073618247E-01      0.2037004803E-01
          0                 8           1             1    7     1       0.5251596223E-03       1    7    1         0.4628341203E-02      0.8502766406E-02
          0                 9           1             1    7     1       0.2263321206E-03       1    7    1         0.1994940125E-02      0.3560246282E-02
          0                10           1             1    7     1       0.9753170650E-04       1    7    1         0.8597520787E-03      0.1494107727E-02

    ------------------------------------------------
       NWT REQUIRED           10 OUTER ITERATIONS 
       AND A TOTAL OF         17 INNER ITERATIONS.
    ------------------------------------------------

 NO OUTPUT CONTROL FOR STRESS PERIOD    9   TIME STEP   13
 
 SOLVING FOR HEAD 
                                                   Max.-Head-Change                         Max.-Flux-Residual
  Residual-Control   Outer-Iter.   Inner-Iter.     Column Row Layer    Maximum-Head-Change  Column Row Layer    Maximum-Flux-Residual          L2-NORM 
          0                 1           2             1    7     1       0.1950095641E+00       1    7    1         0.1556395680E+01      0.5341648455E+01
          0                 2           2             1    7     1       0.8304655936E-01       1    7    1         0.6650724446E+00      0.1687296276E+01
          0                 3           2             1    7     1       0.3534483770E-01       1    7    1         0.2830030243E+00      0.6399008121E+00
          0                 4           2             1    7     1       0.1503578418E-01       1    7    1         0.1204528239E+00      0.2515238786E+00
          0                 5           2             1    7     1       0.6393824131E-02       1    7    1         0.5123480647E-01      0.1005871937E+00
          0                 6           2             1    7     1       0.2718056814E-02       1    7    1         0.2178580057E-01      0.4069246285E-01
          0                 7           2             1    7     1       0.1155158411E-02       1    7    1         0.9260737837E-02      0.1659109779E-01
          0                 8           1             1    7     1       0.4908250438E-03       1    7    1         0.3935571034E-02      0.6801390840E-02
          0                 9           1             1    7     1       0.2085102216E-03       1    7    1         0.1672148507E-02      0.2799028643E-02
          0                10           1             1    7     1       0.8856334176E-04       1    7    1         0.7103295140E-03      0.1155225336E-02

    ------------------------------------------------
       NWT REQUIRED           10 OUTER ITERATIONS 
       AND A TOTAL OF         17 INNER ITERATIONS.
    ------------------------------------------------

 NO OUTPUT CONTROL FOR STRESS PERIOD    9   TIME STEP   14
 
 SOLVING FOR HEAD 
                                                   Max.-Head-Change                         Max.-Flux-Residual
  Residual-Control   Outer-Iter.   Inner-Iter.     Column Row Layer    Maximum-Head-Change  Column Row Layer    Maximum-Flux-Residual          L2-NORM 
          0                 1           2             1    7     1       0.1972772805E+00       1    7    1         0.1431600299E+01      0.5230718737E+01
          0                 2           2             1    7     1       0.8228212447E-01       1    7    1         0.5992790605E+00      0.1608290143E+01
          0                 3           2             1    7     1       0.3429354378E-01       1    7    1         0.2497376367E+00      0.5944220650E+00
          0                 4           2             1    7     1       0.1428443351E-01       1    7    1         0.1040892147E+00      0.2269724750E+00
          0                 5           2             1    7     1       0.5947063316E-02       1    7    1         0.4335033761E-01      0.8803442894E-01
          0                 6           2             1    7     1       0.2474943434E-02       1    7    1         0.1804667531E-01      0.3453533172E-01
          0                 7           1             1    7     1       0.1029622612E-02       1    7    1         0.7509759689E-02      0.1366326381E-01
          0                 8           1             1    7     1       0.4282154767E-03       1    7    1         0.3124000078E-02      0.5440879592E-02
          0                 9           1             1    7     1       0.1780472962E-03       1    7    1         0.1299185485E-02      0.2177621581E-02
          0                10           1             1    7     1       0.7401353474E-04       1    7    1         0.5401610384E-03      0.8750633555E-03

    ------------------------------------------------
       NWT REQUIRED           10 OUTER ITERATIONS 
       AND A TOTAL OF         16 INNER ITERATIONS.
    ------------------------------------------------

 OUTPUT CONTROL FOR STRESS PERIOD    9   TIME STEP   15
    PRINT BUDGET
    PRINT HEAD FOR ALL LAYERS
    SAVE HEAD FOR ALL LAYERS
    SAVE BUDGET

            WELLS   PERIOD    9   STEP  15
 WELL      1   LAYER   1   ROW     6   COL     4   RATE    -1.00000    
 WELL      2   LAYER   1   ROW     6   COL     5   RATE    -1.00000    
 WELL      3   LAYER   1   ROW     7   COL     4   RATE    -1.00000    
 WELL      4   LAYER   1   ROW     7   COL     5   RATE    -1.00000    
 WELL      5   LAYER   1   ROW     8   COL     4   RATE    -1.00000    
 WELL      6   LAYER   1   ROW     8   COL     5   RATE    -1.00000    
 WELL      7   LAYER   1   ROW     9   COL     4   RATE    -1.00000    
 WELL      8   LAYER   1   ROW     9   COL     5   RATE    -1.00000    
 WELL      9   LAYER   1   ROW    10   COL     4   RATE    -1.00000    
 WELL     10   LAYER   1   ROW    10   COL     5   RATE    -1.00000    

  HEAD DEP BOUNDS   PERIOD    9   STEP    15
 BOUNDARY      1   LAYER   1   ROW    13   COL     1   RATE   -0.284890    
 BOUNDARY      2   LAYER   1   ROW    14   COL     9   RATE    0.205494    



 STREAM LISTING     PERIOD      9   STEP       15

 LAYER ROW COL. STREAM  RCH.  FLOW INTO     FLOW TO   FLOW OUT OF   OVRLND.     DIRECT     STREAM       STREAM     STREAM     STREAM   STREAMBED  STREAMBED
                SEG.NO.  NO.  STRM. RCH.    AQUIFER    STRM. RCH.    RUNOFF     PRECIP       ET          HEAD       DEPTH      WIDTH   CONDCTNC.   GRADIENT

   1    1    1     1     1    2.5000E+01  1.1595E+00   2.3841E+01  0.000E+00  0.000E+00  0.000E+00  1.09422E+03  1.171E+00  1.295E+01  5.826E-01  6.634E-01
   1    2    2     1     2    2.3841E+01  2.5541E+00   2.1286E+01  0.000E+00  0.000E+00  0.000E+00  1.08920E+03  1.143E+00  1.256E+01  8.794E-01  9.681E-01
   1    3    3     1     3    2.1286E+01  2.9365E+00   1.8350E+01  0.000E+00  0.000E+00  0.000E+00  1.08352E+03  1.097E+00  1.195E+01  7.167E-01  1.366E+00
   1    3    4     1     4    1.8350E+01  2.4960E+00   1.5854E+01  0.000E+00  0.000E+00  0.000E+00  1.07846E+03  1.051E+00  1.110E+01  6.161E-01  1.350E+00
   1    4    5     2     1    5.8539E+00  2.6773E+00   3.1766E+00  0.000E+00  0.000E+00  0.000E+00  1.07237E+03  4.325E-01  1.200E+01  7.800E-01  1.144E+00
   1    5    6     2     2    3.1766E+00  1.9682E+00   1.2084E+00  0.000E+00  0.000E+00  0.000E+00  1.06679E+03  2.804E-01  1.200E+01  6.000E-01  1.093E+00
   1    6    6     2     3    1.2084E+00  1.2084E+00   0.0000E+00  0.000E+00  0.000E+00  0.000E+00  1.06184E+03  4.412E-02  1.200E+01  6.000E-01  1.015E+00
   1    7    6     2     4    0.0000E+00  0.0000E+00   0.0000E+00  0.000E+00  0.000E+00  0.000E+00  1.05708E+03  0.000E+00  1.200E+01  6.000E-01  1.000E+00
   1    8    6     2     5    0.0000E+00  0.0000E+00   0.0000E+00  0.000E+00  0.000E+00  0.000E+00  1.05236E+03  0.000E+00  1.200E+01  6.000E-01  1.000E+00
   1    3    5     3     1    1.0000E+01  1.5207E+00   8.4793E+00  0.000E+00  0.000E+00  0.000E+00  1.07555E+03  1.909E+00  9.636E+00  7.227E-01  1.052E+00
   1    3    6     3     2    8.4793E+00  1.1144E+00   7.3648E+00  0.000E+00  0.000E+00  0.000E+00  1.07264E+03  1.727E+00  8.909E+00  6.682E-01  8.339E-01
   1    3    7     3     3    7.3648E+00  6.7846E-01   6.6864E+00  0.000E+00  0.000E+00  0.000E+00  1.06987E+03  1.555E+00  8.218E+00  5.547E-01  6.115E-01
   1    4    8     3     4    6.6864E+00  1.4163E+00   5.2701E+00  0.000E+00  0.000E+00  0.000E+00  1.06682E+03  1.364E+00  7.455E+00  6.709E-01  1.055E+00
   1    5    8     3     5    5.2701E+00  1.4664E+00   3.8037E+00  0.000E+00  0.000E+00  0.000E+00  1.06362E+03  1.164E+00  6.655E+00  4.991E-01  1.469E+00
   1    6    8     3     6    3.8037E+00  5.5980E-01   3.2439E+00  0.000E+00  0.000E+00  0.000E+00  1.06158E+03  1.036E+00  6.145E+00  1.844E-01  1.518E+00
   1    5   10     4     1    1.0000E+01  9.0525E-01   9.0947E+00  0.000E+00  0.000E+00  0.000E+00  1.07835E+03  6.210E-01  1.000E+01  2.500E-01  1.207E+00
   1    5    9     4     2    9.0947E+00  1.7835E+00   7.3113E+00  0.000E+00  0.000E+00  0.000E+00  1.07148E+03  5.670E-01  1.000E+01  5.000E-01  1.189E+00
   1    6    8     4     3    7.3113E+00  1.2257E+00   6.0855E+00  0.000E+00  0.000E+00  0.000E+00  1.06368E+03  5.021E-01  1.000E+01  3.500E-01  1.167E+00
   1    6    8     5     1    9.3294E+00  2.5719E-01   9.0722E+00  0.000E+00  0.000E+00  0.000E+00  1.05865E+03  6.523E-01  1.439E+01  5.756E-01  1.489E-01
   1    7    7     5     2    9.0722E+00  1.3167E+00   7.7556E+00  0.000E+00  0.000E+00  0.000E+00  1.05413E+03  6.322E-01  1.364E+01  6.820E-01  6.436E-01
   1    8    7     5     3    7.7556E+00  9.6060E-01   6.7950E+00  0.000E+00  0.000E+00  0.000E+00  1.04985E+03  6.009E-01  1.250E+01  4.375E-01  7.319E-01
   1    8    6     5     4    6.7950E+00  9.3241E-01   5.8625E+00  0.000E+00  0.000E+00  0.000E+00  1.04682E+03  5.722E-01  1.150E+01  2.874E-01  1.081E+00
   1    9    6     6     1    5.8625E+00  1.8559E+00   4.0067E+00  0.000E+00  0.000E+00  0.000E+00  1.04319E+03  4.612E-01  1.200E+01  6.000E-01  1.031E+00
   1   10    7     6     2    4.0067E+00  1.1251E+00   2.8816E+00  0.000E+00  0.000E+00  0.000E+00  1.03855E+03  3.717E-01  1.200E+01  6.000E-01  6.250E-01
   1   11    7     6     3    2.8816E+00  7.7070E-01   2.1109E+00  0.000E+00  0.000E+00  0.000E+00  1.03394E+03  3.064E-01  1.200E+01  6.000E-01  4.282E-01
   1   12    7     6     4    2.1109E+00  3.8014E-01   1.7308E+00  0.000E+00  0.000E+00  0.000E+00  1.02935E+03  2.619E-01  1.200E+01  6.000E-01  2.112E-01
   1   13    7     6     5    1.7308E+00 -7.8649E-01   2.5173E+00  0.000E+00  0.000E+00  0.000E+00  1.02619E+03  2.781E-01  1.200E+01  2.400E-01 -1.092E+00
   1   14    9     7     1    1.5000E+02  1.5413E+00   1.4846E+02  0.000E+00  0.000E+00  0.000E+00  1.03987E+03  2.287E+00  5.529E+01  5.593E+00  9.187E-02
   1   13    8     7     2    1.4846E+02  1.5540E+00   1.4690E+02  0.000E+00  0.000E+00  0.000E+00  1.03478E+03  2.279E+00  5.526E+01  6.148E+00  8.426E-02
   1   13    7     7     3    1.4690E+02  1.2648E+00   1.4564E+02  0.000E+00  0.000E+00  0.000E+00  1.02969E+03  2.271E+00  5.522E+01  5.585E+00  7.549E-02
   1   13    6     8     1    1.4816E+02  8.1381E-02   1.4808E+02  0.000E+00  0.000E+00  0.000E+00  1.02468E+03  2.804E+00  4.065E+01  4.142E+00  6.548E-03
   1   13    5     8     2    1.4808E+02 -5.5535E-01   1.4863E+02  0.000E+00  0.000E+00  0.000E+00  1.01843E+03  2.805E+00  4.068E+01  4.145E+00 -4.466E-02
   1   13    4     8     3    1.4863E+02 -1.4316E+00   1.5006E+02  0.000E+00  0.000E+00  0.000E+00  1.01219E+03  2.812E+00  4.078E+01  4.155E+00 -1.148E-01
   1   13    3     8     4    1.5006E+02 -2.1145E+00   1.5218E+02  0.000E+00  0.000E+00  0.000E+00  1.00595E+03  2.825E+00  4.096E+01  4.174E+00 -1.689E-01
   1   13    2     8     5    1.5218E+02 -2.1253E+00   1.5430E+02  0.000E+00  0.000E+00  0.000E+00  9.99714E+02  2.840E+00  4.117E+01  4.196E+00 -1.688E-01
   1   13    1     8     6    1.5430E+02 -1.9443E+00   1.5625E+02  0.000E+00  0.000E+00  0.000E+00  9.94729E+02  2.854E+00  4.138E+01  2.530E+00 -2.562E-01



 UBDSV3 SAVING "           GW ET" ON UNIT  61 AT TIME STEP 15, STRESS PERIOD   9
 UBDSV3 SAVING "    UZF RECHARGE" ON UNIT  61 AT TIME STEP 15, STRESS PERIOD   9
 UBDSV3 SAVING " SURFACE LEAKAGE" ON UNIT  61 AT TIME STEP 15, STRESS PERIOD   9
 UBDSV3 SAVING "       HORT+DUNN" ON UNIT  61 AT TIME STEP 15, STRESS PERIOD   9
 UBDSV3 SAVING "  STORAGE CHANGE" ON UNIT  61 AT TIME STEP 15, STRESS PERIOD   9


UNSATURATED ZONE PACKAGE VOLUMETRIC BUDGET FOR  TIME STEP    15 STRESS PERIOD    9
  ------------------------------------------------------------------------------



     CUMULATIVE VOLUMES      L**3       RATES FOR THIS TIME STEP      L**3/T
     ------------------                 ------------------------

           IN:                                      IN:
           ---                                      ---
        INFILTRATION =  1447168382.2559          INFILTRATION =          25.4250

          OUT:                                     OUT:
          ----                                     ----
              UZF ET =       11615.6164                UZF ET =           0.0014
        UZF RECHARGE =  1096197159.7331          UZF RECHARGE =          58.2716

            IN - OUT =   350959606.9064              IN - OUT =         -32.8480

          STORAGE:                                 STORAGE:
          --------                                 --------
      STORAGE CHANGE =   351901427.2840        STORAGE CHANGE =         -32.5765

 PERCENT DISCREPANCY IS DIFFERENCE BETWEEN IN-OUT MINUS CHANGE IN STORAGE
 DIVIDED BY THE AVERAGE OF IN AND OUT TIMES 100

 PERCENT DISCREPANCY =          -0.02     PERCENT DISCREPANCY =          -0.47






1
              HEAD IN LAYER   1 AT END OF TIME STEP  15 IN STRESS PERIOD    9
  ---------------------------------------------------------------------------

           1       2       3       4       5       6       7       8       9      10
 ...................................................................................
   1  1092.23 1087.77 6999.00 6999.00 6999.00 6999.00 6999.00 6999.00 6999.00 6999.00
   2  1089.28 1086.30 1078.42 6999.00 6999.00 1080.30 1079.23 1073.65 6999.00 6999.00
   3  6999.00 1079.12 1078.99 1074.25 1073.44 1070.97 1068.65 1071.33 6999.00 6999.00
   4  1074.98 1070.77 1065.21 1063.66 1066.18 1061.53 1060.14 1064.71 1062.30 6999.00
   5  1071.04 1063.04 1056.13 1053.55 1055.78 1060.50 1057.25 1060.68 1064.30 1065.78
   6  1067.24 1057.81 1054.22 1040.26 1043.29 1053.30 1054.10 1058.21 1057.98 1067.58
   7  1063.82 1052.74 1048.92 1031.85 1035.43 1045.96 1052.20 1052.82 1053.61 6999.00
   8  6999.00 1047.18 1044.19 1027.95 1031.30 1043.58 1047.66 1048.69 1052.78 6999.00
   9  6999.00 1040.99 1039.34 1024.13 1027.87 1040.10 1040.30 1042.55 1047.97 6999.00
  10  6999.00 1034.72 1034.62 1021.98 1024.37 1032.41 1036.68 1038.47 1045.41 1059.81
  11  6999.00 1024.17 1024.71 1024.18 1025.84 1029.04 1032.66 1035.60 1041.55 6999.00
  12  1006.83 1013.88 1015.94 1019.52 1022.26 1025.53 1028.72 1031.06 1036.07 6999.00
  13   995.50 1000.22 1006.46 1012.53 1018.56 1024.66 1029.46 1034.53 1035.95 6999.00
  14  6999.00 1015.11 1023.21 1028.07 1031.49 1034.29 1035.87 1036.45 1039.59 6999.00
  15  6999.00 6999.00 1039.28 1040.08 1041.38 1042.20 6999.00 6999.00 6999.00 6999.00
1
              HEAD IN LAYER   2 AT END OF TIME STEP  15 IN STRESS PERIOD    9
  ---------------------------------------------------------------------------

           1       2       3       4       5       6       7       8       9      10
 ...................................................................................
   1  1091.16 1087.31 6999.00 6999.00 6999.00 6999.00 6999.00 6999.00 6999.00 6999.00
   2  1088.88 1081.46 1076.05 6999.00 6999.00 1078.63 1077.59 1073.60 6999.00 6999.00
   3  6999.00 1075.40 1069.11 1065.23 1064.48 1065.75 1066.87 1069.64 6999.00 6999.00
   4  1073.39 1069.29 1063.59 1059.82 1058.32 1057.84 1059.19 1062.47 1062.03 6999.00
   5  1069.60 1062.46 1057.17 1054.56 1054.14 1054.37 1054.63 1056.43 1060.26 1064.36
   6  1065.80 1057.47 1052.39 1049.60 1049.64 1050.72 1051.92 1053.76 1057.42 1066.61
   7  1062.54 1052.50 1047.55 1044.88 1045.29 1046.72 1048.56 1051.02 1053.75 6999.00
   8  6999.00 1046.52 1042.86 1040.50 1041.08 1042.60 1044.37 1048.22 1052.10 6999.00
   9  6999.00 1040.23 1037.87 1036.13 1036.90 1038.46 1039.86 1042.56 1047.66 6999.00
  10  6999.00 1033.76 1032.80 1032.19 1033.24 1034.78 1036.05 1038.58 1045.31 1058.25
  11  6999.00 1024.85 1026.11 1028.54 1030.15 1031.84 1033.30 1035.52 1040.72 6999.00
  12  1007.19 1015.34 1020.67 1024.62 1027.31 1029.54 1031.18 1032.57 1036.20 6999.00
  13  1000.53 1008.34 1016.77 1022.21 1025.76 1028.60 1030.97 1033.34 1035.83 6999.00
  14  6999.00 1015.51 1022.58 1027.32 1030.63 1033.20 1034.47 1035.77 1037.33 6999.00
  15  6999.00 6999.00 1038.08 1039.12 1040.52 1041.44 6999.00 6999.00 6999.00 6999.00

 HEAD WILL BE SAVED ON UNIT   58 AT END OF TIME STEP   15, STRESS PERIOD    9
1
  VOLUMETRIC BUDGET FOR ENTIRE MODEL AT END OF TIME STEP   15, STRESS PERIOD   9
  ------------------------------------------------------------------------------

     CUMULATIVE VOLUMES      L**3       RATES FOR THIS TIME STEP      L**3/T
     ------------------                 ------------------------

           IN:                                      IN:
           ---                                      ---
             STORAGE     =    79780960.0000               STORAGE     =           3.2424
       CONSTANT HEAD     =           0.0000         CONSTANT HEAD     =           0.0000
               WELLS     =           0.0000                 WELLS     =           0.0000
     HEAD DEP BOUNDS     =     4891495.0000       HEAD DEP BOUNDS     =           0.2055
      STREAM LEAKAGE     =   932842624.0000        STREAM LEAKAGE     =          37.7108
        UZF RECHARGE     =  1096197376.0000          UZF RECHARGE     =          58.2716
               GW ET     =           0.0000                 GW ET     =           0.0000
     SURFACE LEAKAGE     =           0.0000       SURFACE LEAKAGE     =           0.0000

                TOTAL IN =  2113712384.0000                  TOTAL IN =          99.4303

          OUT:                                     OUT:
          ----                                     ----
             STORAGE     =   962655744.0000               STORAGE     =          55.3146
       CONSTANT HEAD     =           0.0000         CONSTANT HEAD     =           0.0000
               WELLS     =   315359968.0000                 WELLS     =          10.0000
     HEAD DEP BOUNDS     =     6713005.5000       HEAD DEP BOUNDS     =           0.2849
      STREAM LEAKAGE     =   197166432.0000        STREAM LEAKAGE     =           8.9575
        UZF RECHARGE     =           0.0000          UZF RECHARGE     =           0.0000
               GW ET     =   564181568.0000                 GW ET     =          24.8722
     SURFACE LEAKAGE     =    67618264.0000       SURFACE LEAKAGE     =           0.0000

               TOTAL OUT =  2113694976.0000                 TOTAL OUT =          99.4292

                IN - OUT =       17408.0000                  IN - OUT =       1.0681E-03

     PERCENT DISCREPANCY =           0.00         PERCENT DISCREPANCY =           0.00






         TIME SUMMARY AT END OF TIME STEP   15 IN STRESS PERIOD    9
                    SECONDS     MINUTES      HOURS       DAYS        YEARS
                    -----------------------------------------------------------
   TIME STEP LENGTH 3.14103E+05  5235.0      87.251      3.6354     9.95332E-03
 STRESS PERIOD TIME 2.62800E+06  43800.      730.00      30.417     8.32763E-02
         TOTAL TIME 2.36520E+07 3.94200E+05  6570.0      273.75     0.74949    
1
1
                            STRESS PERIOD NO.   10, LENGTH =   2628000.    
                            -----------------------------------------------

                              NUMBER OF TIME STEPS =    15

                               MULTIPLIER FOR DELT =     1.100

                            INITIAL TIME STEP SIZE =   82713.07    

      0 WELLS

 REUSING NON-PARAMETER GHB CELLS FROM LAST STRESS PERIOD

      2 GHB CELLS

 REUSING STREAM SEGMENT DATA FROM LAST STRESS PERIOD



            AREAL INFILTRATION RATE
 READING ON UNIT   19 WITH FORMAT: (10F4.0)            

            1           2           3           4           5           6           7           8           9          10
 ........................................................................................................................
   1   2.0000E-09  4.0000E-09   0.000       0.000       0.000       0.000       0.000       0.000       0.000       0.000    
   2   4.0000E-09  2.0000E-09  4.0000E-09   0.000       0.000      1.6000E-08  1.6000E-08  1.0000E-08   0.000       0.000    
   3    0.000      1.0000E-08  2.0000E-09  2.0000E-09  1.6000E-08  1.6000E-08  1.0000E-08  1.0000E-08   0.000       0.000    
   4   1.6000E-08  1.0000E-08  2.0000E-09  2.0000E-09  2.0000E-09  2.0000E-09  2.0000E-09  2.0000E-09  4.0000E-09   0.000    
   5   1.6000E-08  1.0000E-08  2.0000E-09  2.0000E-09  2.0000E-09  2.0000E-09  2.0000E-09  2.0000E-09  2.0000E-09  2.0000E-09
   6   1.6000E-08  1.0000E-08  1.0000E-08  4.0000E-09  4.0000E-09  2.0000E-09  2.0000E-09  2.0000E-09  2.0000E-09  1.0000E-08
   7   1.6000E-08  1.0000E-08  1.0000E-08  4.0000E-09  4.0000E-09  2.0000E-09  2.0000E-09  4.0000E-09  4.0000E-09   0.000    
   8    0.000      1.0000E-08  1.0000E-08  4.0000E-09  4.0000E-09  2.0000E-09  2.0000E-09  4.0000E-09  1.0000E-08   0.000    
   9    0.000      1.0000E-08  1.0000E-08  4.0000E-09  4.0000E-09  2.0000E-09  2.0000E-09  4.0000E-09  1.0000E-08   0.000    
  10    0.000      1.0000E-08  1.0000E-08  4.0000E-09  4.0000E-09  2.0000E-09  2.0000E-09  4.0000E-09  1.0000E-08  1.6000E-08
  11    0.000      2.0000E-09  2.0000E-09  2.0000E-09  2.0000E-09  2.0000E-09  2.0000E-09  4.0000E-09  1.0000E-08   0.000    
  12   2.0000E-09  2.0000E-09  2.0000E-09  2.0000E-09  2.0000E-09  2.0000E-09  2.0000E-09  2.0000E-09  4.0000E-09   0.000    
  13   2.0000E-09  2.0000E-09  4.0000E-09  4.0000E-09  4.0000E-09  4.0000E-09  4.0000E-09  2.0000E-09  2.0000E-09   0.000    
  14    0.000      4.0000E-09  1.0000E-08  1.0000E-08  1.0000E-08  1.0000E-08  1.0000E-08  4.0000E-09  2.0000E-09   0.000    
  15    0.000       0.000      1.6000E-08  1.6000E-08  1.6000E-08  1.6000E-08   0.000       0.000       0.000       0.000    

USING ET RATE FROM PREVIOUS STRESS PERIOD. CURRENT PERIOD IS:      10

 USING ET EXTINCTION DEPTH FROM PREVIOUS STRESS PERIOD. CURRENT PERIOD IS:      10

 USING EXTINCTION WATER CONTENT FROM PREVIOUS STRESS PERIOD. CURRENT PERIOD IS:      10
 
 SOLVING FOR HEAD 
                                                   Max.-Head-Change                         Max.-Flux-Residual
  Residual-Control   Outer-Iter.   Inner-Iter.     Column Row Layer    Maximum-Head-Change  Column Row Layer    Maximum-Flux-Residual          L2-NORM 
          0                 1           2             1    7     2       0.4835867684E-01       4    7    1         0.1958783611E+01      0.7073463335E+01
          0                 2           2             1    7     1       0.1931469131E-01       1    7    1         0.5322426209E+00      0.1531646229E+01
          0                 3           2             1    7     1       0.7868149820E-02       1    7    1         0.2167017659E+00      0.5357172234E+00
          0                 4           2             1    7     1       0.3204869816E-02       1    7    1         0.8828858235E-01      0.2012473775E+00
          0                 5           2             1    7     1       0.1305301363E-02       1    7    1         0.3595976342E-01      0.7685795392E-01
          0                 6           1             1    7     1       0.5315946161E-03       1    7    1         0.1464584246E-01      0.2964022522E-01
          0                 7           1             1    7     1       0.2164834142E-03       1    7    1         0.5964545391E-02      0.1150973406E-01
          0                 8           1             1    7     1       0.8815492368E-04       1    7    1         0.2428939868E-02      0.4492700270E-02

    ------------------------------------------------
       NWT REQUIRED            8 OUTER ITERATIONS 
       AND A TOTAL OF         13 INNER ITERATIONS.
    ------------------------------------------------

 NO OUTPUT CONTROL FOR STRESS PERIOD   10   TIME STEP    1
 
 SOLVING FOR HEAD 
                                                   Max.-Head-Change                         Max.-Flux-Residual
  Residual-Control   Outer-Iter.   Inner-Iter.     Column Row Layer    Maximum-Head-Change  Column Row Layer    Maximum-Flux-Residual          L2-NORM 
          0                 1           2             1    7     1       0.5202865750E-01       4    7    1         0.1956698364E+01      0.7094290123E+01
          0                 2           2             1    7     1       0.2119405018E-01       1    7    1         0.5309926080E+00      0.1552803893E+01
          0                 3           2             1    7     1       0.8632067374E-02       1    7    1         0.2161646695E+00      0.5445379066E+00
          0                 4           2             1    7     1       0.3515302538E-02       1    7    1         0.8805137374E-01      0.2044884793E+00
          0                 5           2             1    7     1       0.1431424986E-02       1    7    1         0.3585574401E-01      0.7799898757E-01
          0                 6           1             1    7     1       0.5828275933E-03       1    7    1         0.1460025964E-01      0.3003025666E-01
          0                 7           1             1    7     1       0.2372918119E-03       1    7    1         0.5944627762E-02      0.1163981502E-01
          0                 8           1             1    7     1       0.9660522416E-04       1    7    1         0.2420260200E-02      0.4535045542E-02

    ------------------------------------------------
       NWT REQUIRED            8 OUTER ITERATIONS 
       AND A TOTAL OF         13 INNER ITERATIONS.
    ------------------------------------------------

 NO OUTPUT CONTROL FOR STRESS PERIOD   10   TIME STEP    2
 
 SOLVING FOR HEAD 
                                                   Max.-Head-Change                         Max.-Flux-Residual
  Residual-Control   Outer-Iter.   Inner-Iter.     Column Row Layer    Maximum-Head-Change  Column Row Layer    Maximum-Flux-Residual          L2-NORM 
          0                 1           2             1    7     1       0.5708653888E-01       4    7    1         0.1954487833E+01      0.7093352745E+01
          0                 2           2             1    7     1       0.2325005478E-01       1    7    1         0.5296303801E+00      0.1554753649E+01
          0                 3           2             1    7     1       0.9467481813E-02       1    7    1         0.2155685946E+00      0.5443402209E+00
          0                 4           2             1    7     1       0.3854652020E-02       1    7    1         0.8778998082E-01      0.2040972624E+00
          0                 5           2             1    7     1       0.1569237000E-02       1    7    1         0.3574119763E-01      0.7775607250E-01
          0                 6           1             1    7     1       0.6387827888E-03       1    7    1         0.1455014851E-01      0.2990976868E-01
          0                 7           1             1    7     1       0.2600072272E-03       1    7    1         0.5922756149E-02      0.1158539603E-01
          0                 8           1             1    7     1       0.1058253697E-03       1    7    1         0.2410738650E-02      0.4511624786E-02
          0                 9           1             1    7     1       0.4306949683E-04       1    7    1         0.9811809963E-03      0.1764427924E-02

    ------------------------------------------------
       NWT REQUIRED            9 OUTER ITERATIONS 
       AND A TOTAL OF         14 INNER ITERATIONS.
    ------------------------------------------------

 NO OUTPUT CONTROL FOR STRESS PERIOD   10   TIME STEP    3
 
 SOLVING FOR HEAD 
                                                   Max.-Head-Change                         Max.-Flux-Residual
  Residual-Control   Outer-Iter.   Inner-Iter.     Column Row Layer    Maximum-Head-Change  Column Row Layer    Maximum-Flux-Residual          L2-NORM 
          0                 1           2             1    7     1       0.6004559269E-01       4    7    1         0.1952099767E+01      0.7000484816E+01
          0                 2           2             1    7     1       0.2358530766E-01       1    7    1         0.4885667141E+00      0.1479764373E+01
          0                 3           2             1    7     1       0.9262185117E-02       1    7    1         0.1917685934E+00      0.5050350508E+00
          0                 4           2             1    7     1       0.3636789668E-02       1    7    1         0.7531914928E-01      0.1852791332E+00
          0                 5           2             1    7     1       0.1427805872E-02       1    7    1         0.2957188029E-01      0.6904169734E-01
          0                 6           1             1    7     1       0.5605004245E-03       1    7    1         0.1160978690E-01      0.2596350925E-01
          0                 7           1             1    7     1       0.2200116262E-03       1    7    1         0.4557442993E-02      0.9827907361E-02
          0                 8           1             1    7     1       0.8635422971E-04       1    7    1         0.1788891438E-02      0.3738909909E-02

    ------------------------------------------------
       NWT REQUIRED            8 OUTER ITERATIONS 
       AND A TOTAL OF         13 INNER ITERATIONS.
    ------------------------------------------------

 NO OUTPUT CONTROL FOR STRESS PERIOD   10   TIME STEP    4
 
 SOLVING FOR HEAD 
                                                   Max.-Head-Change                         Max.-Flux-Residual
  Residual-Control   Outer-Iter.   Inner-Iter.     Column Row Layer    Maximum-Head-Change  Column Row Layer    Maximum-Flux-Residual          L2-NORM 
          0                 1           2             8    2     1       0.6642844077E-01       4    7    1         0.1949480157E+01      0.7002917736E+01
          0                 2           2             8    2     1       0.2425555270E-01       8    2    1         0.4574659210E+00      0.1483703565E+01
          0                 3           2             1    7     1       0.9274319318E-02       1    7    1         0.1745799543E+00      0.5031998630E+00
          0                 4           2             1    7     1       0.3641002972E-02       1    7    1         0.6856000895E-01      0.1827522875E+00
          0                 5           2             1    7     1       0.1429204287E-02       1    7    1         0.2691379973E-01      0.6729157254E-01
          0                 6           1             1    7     1       0.5609364891E-03       1    7    1         0.1056429464E-01      0.2498003342E-01
          0                 7           1             1    7     1       0.2201344189E-03       1    7    1         0.4146180164E-02      0.9330186681E-02
          0                 8           1             1    7     1       0.8638209784E-04       1    7    1         0.1627098822E-02      0.3502364913E-02

    ------------------------------------------------
       NWT REQUIRED            8 OUTER ITERATIONS 
       AND A TOTAL OF         13 INNER ITERATIONS.
    ------------------------------------------------

 OUTPUT CONTROL FOR STRESS PERIOD   10   TIME STEP    5
    PRINT BUDGET
    SAVE BUDGET

  HEAD DEP BOUNDS   PERIOD   10   STEP     5
 BOUNDARY      1   LAYER   1   ROW    13   COL     1   RATE   -0.284746    
 BOUNDARY      2   LAYER   1   ROW    14   COL     9   RATE    0.205550    



 STREAM LISTING     PERIOD     10   STEP        5

 LAYER ROW COL. STREAM  RCH.  FLOW INTO     FLOW TO   FLOW OUT OF   OVRLND.     DIRECT     STREAM       STREAM     STREAM     STREAM   STREAMBED  STREAMBED
                SEG.NO.  NO.  STRM. RCH.    AQUIFER    STRM. RCH.    RUNOFF     PRECIP       ET          HEAD       DEPTH      WIDTH   CONDCTNC.   GRADIENT

   1    1    1     1     1    2.5000E+01  1.1565E+00   2.3843E+01  0.000E+00  0.000E+00  0.000E+00  1.09422E+03  1.171E+00  1.295E+01  5.826E-01  6.617E-01
   1    2    2     1     2    2.3843E+01  2.5333E+00   2.1310E+01  0.000E+00  0.000E+00  0.000E+00  1.08920E+03  1.143E+00  1.257E+01  8.796E-01  9.600E-01
   1    3    3     1     3    2.1310E+01  2.9385E+00   1.8372E+01  0.000E+00  0.000E+00  0.000E+00  1.08352E+03  1.097E+00  1.195E+01  7.171E-01  1.366E+00
   1    3    4     1     4    1.8372E+01  2.4977E+00   1.5874E+01  0.000E+00  0.000E+00  0.000E+00  1.07846E+03  1.052E+00  1.111E+01  6.165E-01  1.351E+00
   1    4    5     2     1    5.8740E+00  2.6782E+00   3.1958E+00  0.000E+00  0.000E+00  0.000E+00  1.07237E+03  4.336E-01  1.200E+01  7.800E-01  1.145E+00
   1    5    6     2     2    3.1958E+00  1.9691E+00   1.2267E+00  0.000E+00  0.000E+00  0.000E+00  1.06679E+03  2.818E-01  1.200E+01  6.000E-01  1.094E+00
   1    6    6     2     3    1.2267E+00  1.2267E+00   0.0000E+00  0.000E+00  0.000E+00  0.000E+00  1.06184E+03  4.452E-02  1.200E+01  6.000E-01  1.015E+00
   1    7    6     2     4    0.0000E+00  0.0000E+00   0.0000E+00  0.000E+00  0.000E+00  0.000E+00  1.05708E+03  0.000E+00  1.200E+01  6.000E-01  1.000E+00
   1    8    6     2     5    0.0000E+00  0.0000E+00   0.0000E+00  0.000E+00  0.000E+00  0.000E+00  1.05236E+03  0.000E+00  1.200E+01  6.000E-01  1.000E+00
   1    3    5     3     1    1.0000E+01  1.5496E+00   8.4504E+00  0.000E+00  0.000E+00  0.000E+00  1.07555E+03  1.909E+00  9.636E+00  7.227E-01  1.072E+00
   1    3    6     3     2    8.4504E+00  1.1451E+00   7.3054E+00  0.000E+00  0.000E+00  0.000E+00  1.07264E+03  1.727E+00  8.909E+00  6.682E-01  8.568E-01
   1    3    7     3     3    7.3054E+00  6.9614E-01   6.6092E+00  0.000E+00  0.000E+00  0.000E+00  1.06987E+03  1.555E+00  8.218E+00  5.547E-01  6.275E-01
   1    4    8     3     4    6.6092E+00  1.4201E+00   5.1892E+00  0.000E+00  0.000E+00  0.000E+00  1.06682E+03  1.364E+00  7.455E+00  6.709E-01  1.058E+00
   1    5    8     3     5    5.1892E+00  1.4600E+00   3.7292E+00  0.000E+00  0.000E+00  0.000E+00  1.06362E+03  1.164E+00  6.655E+00  4.991E-01  1.463E+00
   1    6    8     3     6    3.7292E+00  5.5980E-01   3.1694E+00  0.000E+00  0.000E+00  0.000E+00  1.06158E+03  1.036E+00  6.145E+00  1.844E-01  1.518E+00
   1    5   10     4     1    1.0000E+01  9.0525E-01   9.0947E+00  0.000E+00  0.000E+00  0.000E+00  1.07835E+03  6.210E-01  1.000E+01  2.500E-01  1.207E+00
   1    5    9     4     2    9.0947E+00  1.7835E+00   7.3113E+00  0.000E+00  0.000E+00  0.000E+00  1.07148E+03  5.670E-01  1.000E+01  5.000E-01  1.189E+00
   1    6    8     4     3    7.3113E+00  1.2257E+00   6.0855E+00  0.000E+00  0.000E+00  0.000E+00  1.06368E+03  5.021E-01  1.000E+01  3.500E-01  1.167E+00
   1    6    8     5     1    9.2549E+00  2.5130E-01   9.0036E+00  0.000E+00  0.000E+00  0.000E+00  1.05865E+03  6.505E-01  1.432E+01  5.729E-01  1.462E-01
   1    7    7     5     2    9.0036E+00  1.3060E+00   7.6976E+00  0.000E+00  0.000E+00  0.000E+00  1.05413E+03  6.306E-01  1.358E+01  6.789E-01  6.413E-01
   1    8    7     5     3    7.6976E+00  9.5119E-01   6.7464E+00  0.000E+00  0.000E+00  0.000E+00  1.04985E+03  5.993E-01  1.244E+01  4.356E-01  7.279E-01
   1    8    6     5     4    6.7464E+00  9.2072E-01   5.8257E+00  0.000E+00  0.000E+00  0.000E+00  1.04682E+03  5.709E-01  1.145E+01  2.863E-01  1.072E+00
   1    9    6     6     1    5.8257E+00  1.8447E+00   3.9810E+00  0.000E+00  0.000E+00  0.000E+00  1.04319E+03  4.595E-01  1.200E+01  6.000E-01  1.025E+00
   1   10    7     6     2    3.9810E+00  1.1152E+00   2.8658E+00  0.000E+00  0.000E+00  0.000E+00  1.03855E+03  3.704E-01  1.200E+01  6.000E-01  6.196E-01
   1   11    7     6     3    2.8658E+00  7.6071E-01   2.1051E+00  0.000E+00  0.000E+00  0.000E+00  1.03394E+03  3.056E-01  1.200E+01  6.000E-01  4.226E-01
   1   12    7     6     4    2.1051E+00  3.7936E-01   1.7257E+00  0.000E+00  0.000E+00  0.000E+00  1.02935E+03  2.614E-01  1.200E+01  6.000E-01  2.108E-01
   1   13    7     6     5    1.7257E+00 -7.8685E-01   2.5126E+00  0.000E+00  0.000E+00  0.000E+00  1.02619E+03  2.778E-01  1.200E+01  2.400E-01 -1.093E+00
   1   14    9     7     1    1.5000E+02  1.5494E+00   1.4845E+02  0.000E+00  0.000E+00  0.000E+00  1.03987E+03  2.287E+00  5.529E+01  5.593E+00  9.235E-02
   1   13    8     7     2    1.4845E+02  1.5578E+00   1.4689E+02  0.000E+00  0.000E+00  0.000E+00  1.03478E+03  2.279E+00  5.526E+01  6.148E+00  8.447E-02
   1   13    7     7     3    1.4689E+02  1.2585E+00   1.4563E+02  0.000E+00  0.000E+00  0.000E+00  1.02969E+03  2.271E+00  5.522E+01  5.585E+00  7.511E-02
   1   13    6     8     1    1.4815E+02  8.1644E-02   1.4807E+02  0.000E+00  0.000E+00  0.000E+00  1.02468E+03  2.803E+00  4.065E+01  4.142E+00  6.570E-03
   1   13    5     8     2    1.4807E+02 -5.4109E-01   1.4861E+02  0.000E+00  0.000E+00  0.000E+00  1.01843E+03  2.805E+00  4.067E+01  4.145E+00 -4.352E-02
   1   13    4     8     3    1.4861E+02 -1.4150E+00   1.5002E+02  0.000E+00  0.000E+00  0.000E+00  1.01219E+03  2.812E+00  4.077E+01  4.155E+00 -1.135E-01
   1   13    3     8     4    1.5002E+02 -2.0954E+00   1.5212E+02  0.000E+00  0.000E+00  0.000E+00  1.00595E+03  2.824E+00  4.095E+01  4.173E+00 -1.674E-01
   1   13    2     8     5    1.5212E+02 -2.1106E+00   1.5423E+02  0.000E+00  0.000E+00  0.000E+00  9.99714E+02  2.839E+00  4.117E+01  4.195E+00 -1.677E-01
   1   13    1     8     6    1.5423E+02 -1.9357E+00   1.5616E+02  0.000E+00  0.000E+00  0.000E+00  9.94728E+02  2.853E+00  4.137E+01  2.529E+00 -2.551E-01



 UBDSV3 SAVING "           GW ET" ON UNIT  61 AT TIME STEP  5, STRESS PERIOD  10
 UBDSV3 SAVING "    UZF RECHARGE" ON UNIT  61 AT TIME STEP  5, STRESS PERIOD  10
 UBDSV3 SAVING " SURFACE LEAKAGE" ON UNIT  61 AT TIME STEP  5, STRESS PERIOD  10
 UBDSV3 SAVING "       HORT+DUNN" ON UNIT  61 AT TIME STEP  5, STRESS PERIOD  10
 UBDSV3 SAVING "  STORAGE CHANGE" ON UNIT  61 AT TIME STEP  5, STRESS PERIOD  10


UNSATURATED ZONE PACKAGE VOLUMETRIC BUDGET FOR  TIME STEP     5 STRESS PERIOD   10
  ------------------------------------------------------------------------------



     CUMULATIVE VOLUMES      L**3       RATES FOR THIS TIME STEP      L**3/T
     ------------------                 ------------------------

           IN:                                      IN:
           ---                                      ---
        INFILTRATION =  1455727650.4946          INFILTRATION =          16.9500

          OUT:                                     OUT:
          ----                                     ----
              UZF ET =       11615.6164                UZF ET =       0.0000E+00
        UZF RECHARGE =  1124930431.9033          UZF RECHARGE =          56.4770

            IN - OUT =   330785602.9750              IN - OUT =         -39.5270

          STORAGE:                                 STORAGE:
          --------                                 --------
      STORAGE CHANGE =   331727148.7606        STORAGE CHANGE =         -39.5270

 PERCENT DISCREPANCY IS DIFFERENCE BETWEEN IN-OUT MINUS CHANGE IN STORAGE
 DIVIDED BY THE AVERAGE OF IN AND OUT TIMES 100

 PERCENT DISCREPANCY =          -0.02     PERCENT DISCREPANCY =           0.00






1
  VOLUMETRIC BUDGET FOR ENTIRE MODEL AT END OF TIME STEP    5, STRESS PERIOD  10
  ------------------------------------------------------------------------------

     CUMULATIVE VOLUMES      L**3       RATES FOR THIS TIME STEP      L**3/T
     ------------------                 ------------------------

           IN:                                      IN:
           ---                                      ---
             STORAGE     =    81423704.0000               STORAGE     =           3.1435
       CONSTANT HEAD     =           0.0000         CONSTANT HEAD     =           0.0000
               WELLS     =           0.0000                 WELLS     =           0.0000
     HEAD DEP BOUNDS     =     4995282.5000       HEAD DEP BOUNDS     =           0.2056
      STREAM LEAKAGE     =   951888576.0000        STREAM LEAKAGE     =          37.7217
        UZF RECHARGE     =  1124930688.0000          UZF RECHARGE     =          56.4770
               GW ET     =           0.0000                 GW ET     =           0.0000
     SURFACE LEAKAGE     =           0.0000       SURFACE LEAKAGE     =           0.0000

                TOTAL IN =  2163238400.0000                  TOTAL IN =          97.5478

          OUT:                                     OUT:
          ----                                     ----
             STORAGE     =   994964544.0000               STORAGE     =          63.4633
       CONSTANT HEAD     =           0.0000         CONSTANT HEAD     =           0.0000
               WELLS     =   315359968.0000                 WELLS     =           0.0000
     HEAD DEP BOUNDS     =     6856825.0000       HEAD DEP BOUNDS     =           0.2847
      STREAM LEAKAGE     =   201666096.0000        STREAM LEAKAGE     =           8.8847
        UZF RECHARGE     =           0.0000          UZF RECHARGE     =           0.0000
               GW ET     =   576752704.0000                 GW ET     =          24.9104
     SURFACE LEAKAGE     =    67618264.0000       SURFACE LEAKAGE     =           0.0000

               TOTAL OUT =  2163218432.0000                 TOTAL OUT =          97.5431

                IN - OUT =       19968.0000                  IN - OUT =       4.6692E-03

     PERCENT DISCREPANCY =           0.00         PERCENT DISCREPANCY =           0.00






         TIME SUMMARY AT END OF TIME STEP    5 IN STRESS PERIOD   10
                    SECONDS     MINUTES      HOURS       DAYS        YEARS
                    -----------------------------------------------------------
   TIME STEP LENGTH 1.21100E+05  2018.3      33.639      1.4016     3.83743E-03
 STRESS PERIOD TIME 5.04972E+05  8416.2      140.27      5.8446     1.60016E-02
         TOTAL TIME 2.41570E+07 4.02616E+05  6710.3      279.59     0.76549    
1
 
 SOLVING FOR HEAD 
                                                   Max.-Head-Change                         Max.-Flux-Residual
  Residual-Control   Outer-Iter.   Inner-Iter.     Column Row Layer    Maximum-Head-Change  Column Row Layer    Maximum-Flux-Residual          L2-NORM 
          0                 1           2             8    2     1       0.7380430922E-01       4    7    1         0.1946593869E+01      0.6951532086E+01
          0                 2           2             8    2     1       0.2693518101E-01       8    2    1         0.4620802793E+00      0.1462850916E+01
          0                 3           2             1    7     1       0.1016511104E-01       1    7    1         0.1739871322E+00      0.4944346814E+00
          0                 4           2             1    7     1       0.3989721793E-02       1    7    1         0.6831034270E-01      0.1786100485E+00
          0                 5           2             1    7     1       0.1565670565E-02       1    7    1         0.2680907255E-01      0.6527277738E-01
          0                 6           1             1    7     1       0.6143231796E-03       1    7    1         0.1052034748E-01      0.2401132199E-01
          0                 7           1             1    7     1       0.2410131716E-03       1    7    1         0.4127750493E-02      0.8877586708E-02
          0                 8           1             1    7     1       0.9454502448E-04       1    7    1         0.1619374394E-02      0.3296304365E-02

    ------------------------------------------------
       NWT REQUIRED            8 OUTER ITERATIONS 
       AND A TOTAL OF         13 INNER ITERATIONS.
    ------------------------------------------------

 NO OUTPUT CONTROL FOR STRESS PERIOD   10   TIME STEP    6
 
 SOLVING FOR HEAD 
                                                   Max.-Head-Change                         Max.-Flux-Residual
  Residual-Control   Outer-Iter.   Inner-Iter.     Column Row Layer    Maximum-Head-Change  Column Row Layer    Maximum-Flux-Residual          L2-NORM 
          0                 1           2             8    2     1       0.8053482026E-01       4    7    1         0.1943422980E+01      0.7140962454E+01
          0                 2           2             8    2     1       0.2937518408E-01       8    2    1         0.4583338390E+00      0.1596946952E+01
          0                 3           2             1    7     1       0.1116436217E-01       1    7    1         0.1736309032E+00      0.5495168410E+00
          0                 4           2             1    7     1       0.4384624695E-02       1    7    1         0.6821368362E-01      0.1994986170E+00
          0                 5           2             1    7     1       0.1721648239E-02       1    7    1         0.2678754848E-01      0.7303593638E-01
          0                 6           1             1    7     1       0.6758911110E-03       1    7    1         0.1051798200E-01      0.2686374254E-01
          0                 7           1             1    7     1       0.2652987811E-03       1    7    1         0.4129026246E-02      0.9917398873E-02
          0                 8           1             1    7     1       0.1041178726E-03       1    7    1         0.1620659321E-02      0.3673131607E-02
          0                 9           1             1    7     1       0.4085560116E-04       1    7    1         0.6360159218E-03      0.1364441333E-02

    ------------------------------------------------
       NWT REQUIRED            9 OUTER ITERATIONS 
       AND A TOTAL OF         14 INNER ITERATIONS.
    ------------------------------------------------

 NO OUTPUT CONTROL FOR STRESS PERIOD   10   TIME STEP    7
 
 SOLVING FOR HEAD 
                                                   Max.-Head-Change                         Max.-Flux-Residual
  Residual-Control   Outer-Iter.   Inner-Iter.     Column Row Layer    Maximum-Head-Change  Column Row Layer    Maximum-Flux-Residual          L2-NORM 
          0                 1           2             2    7     1       0.8701482456E-01       4    7    1         0.1939938429E+01      0.7091818636E+01
          0                 2           2             2    7     1       0.3178442666E-01       2    7    1         0.4504568476E+00      0.1566131949E+01
          0                 3           2             2    7     1       0.1160789622E-01       2    7    1         0.1644172440E+00      0.5335998203E+00
          0                 4           2             2    7     1       0.4238899645E-02       2    7    1         0.6005575761E-01      0.1919665847E+00
          0                 5           2             1    7     1       0.1572786821E-02       1    7    1         0.2223920650E-01      0.6960615749E-01
          0                 6           1             1    7     1       0.5906534430E-03       1    7    1         0.8352413432E-02      0.2534078212E-01
          0                 7           1             1    7     1       0.2218028487E-03       1    7    1         0.3136656199E-02      0.9252652237E-02
          0                 8           1             1    7     1       0.8328650647E-04       1    7    1         0.1177865852E-02      0.3386516518E-02

    ------------------------------------------------
       NWT REQUIRED            8 OUTER ITERATIONS 
       AND A TOTAL OF         13 INNER ITERATIONS.
    ------------------------------------------------

 NO OUTPUT CONTROL FOR STRESS PERIOD   10   TIME STEP    8
 
 SOLVING FOR HEAD 
                                                   Max.-Head-Change                         Max.-Flux-Residual
  Residual-Control   Outer-Iter.   Inner-Iter.     Column Row Layer    Maximum-Head-Change  Column Row Layer    Maximum-Flux-Residual          L2-NORM 
          0                 1           2             2    7     1       0.9344187092E-01       4    7    1         0.1935813507E+01      0.6971781590E+01
          0                 2           2             2    7     1       0.3373833528E-01       2    7    1         0.4349306315E+00      0.1490544060E+01
          0                 3           2             2    7     1       0.1214356291E-01       2    7    1         0.1564498213E+00      0.4992784119E+00
          0                 4           2             2    7     1       0.4370541420E-02       2    7    1         0.5632136252E-01      0.1773196987E+00
          0                 5           2             2    7     1       0.1572921498E-02       2    7    1         0.2026900703E-01      0.6348359757E-01
          0                 6           1             2    7     1       0.5660695904E-03       2    7    1         0.7294708265E-02      0.2281907388E-01
          0                 7           1             1    7     1       0.2056148036E-03       1    7    1         0.2644526547E-02      0.8226374334E-02
          0                 8           1             1    7     1       0.7715837898E-04       1    7    1         0.9925233749E-03      0.2972962509E-02

    ------------------------------------------------
       NWT REQUIRED            8 OUTER ITERATIONS 
       AND A TOTAL OF         13 INNER ITERATIONS.
    ------------------------------------------------

 NO OUTPUT CONTROL FOR STRESS PERIOD   10   TIME STEP    9
 
 SOLVING FOR HEAD 
                                                   Max.-Head-Change                         Max.-Flux-Residual
  Residual-Control   Outer-Iter.   Inner-Iter.     Column Row Layer    Maximum-Head-Change  Column Row Layer    Maximum-Flux-Residual          L2-NORM 
          0                 1           2             2    7     1       0.9981299095E-01       4    7    1         0.1931253932E+01      0.6848024212E+01
          0                 2           2             2    7     1       0.3590992057E-01       2    7    1         0.4210599743E+00      0.1417278664E+01
          0                 3           2             2    7     1       0.1291604683E-01       2    7    1         0.1513596067E+00      0.4671288193E+00
          0                 4           2             2    7     1       0.4645062019E-02       2    7    1         0.5444976000E-01      0.1640238201E+00
          0                 5           2             2    7     1       0.1670402404E-02       2    7    1         0.1958050795E-01      0.5809201654E-01
          0                 6           1             2    7     1       0.6006616834E-03       2    7    1         0.7041321964E-02      0.2066407339E-01
          0                 7           1             1    7     1       0.2249605043E-03       1    7    1         0.2631576363E-02      0.7375028341E-02
          0                 8           1             1    7     1       0.8436611954E-04       1    7    1         0.9870616968E-03      0.2639798694E-02

    ------------------------------------------------
       NWT REQUIRED            8 OUTER ITERATIONS 
       AND A TOTAL OF         13 INNER ITERATIONS.
    ------------------------------------------------

 OUTPUT CONTROL FOR STRESS PERIOD   10   TIME STEP   10
    PRINT BUDGET
    SAVE BUDGET

  HEAD DEP BOUNDS   PERIOD   10   STEP    10
 BOUNDARY      1   LAYER   1   ROW    13   COL     1   RATE   -0.284481    
 BOUNDARY      2   LAYER   1   ROW    14   COL     9   RATE    0.205664    



 STREAM LISTING     PERIOD     10   STEP       10

 LAYER ROW COL. STREAM  RCH.  FLOW INTO     FLOW TO   FLOW OUT OF   OVRLND.     DIRECT     STREAM       STREAM     STREAM     STREAM   STREAMBED  STREAMBED
                SEG.NO.  NO.  STRM. RCH.    AQUIFER    STRM. RCH.    RUNOFF     PRECIP       ET          HEAD       DEPTH      WIDTH   CONDCTNC.   GRADIENT

   1    1    1     1     1    2.5000E+01  1.1517E+00   2.3848E+01  0.000E+00  0.000E+00  0.000E+00  1.09422E+03  1.172E+00  1.295E+01  5.826E-01  6.589E-01
   1    2    2     1     2    2.3848E+01  2.4912E+00   2.1357E+01  0.000E+00  0.000E+00  0.000E+00  1.08920E+03  1.143E+00  1.257E+01  8.800E-01  9.436E-01
   1    3    3     1     3    2.1357E+01  2.9423E+00   1.8415E+01  0.000E+00  0.000E+00  0.000E+00  1.08352E+03  1.098E+00  1.197E+01  7.180E-01  1.366E+00
   1    3    4     1     4    1.8415E+01  2.5012E+00   1.5914E+01  0.000E+00  0.000E+00  0.000E+00  1.07846E+03  1.052E+00  1.112E+01  6.172E-01  1.351E+00
   1    4    5     2     1    5.9136E+00  2.6799E+00   3.2337E+00  0.000E+00  0.000E+00  0.000E+00  1.07237E+03  4.358E-01  1.200E+01  7.800E-01  1.145E+00
   1    5    6     2     2    3.2337E+00  1.9708E+00   1.2629E+00  0.000E+00  0.000E+00  0.000E+00  1.06679E+03  2.846E-01  1.200E+01  6.000E-01  1.095E+00
   1    6    6     2     3    1.2629E+00  1.2629E+00   0.0000E+00  0.000E+00  0.000E+00  0.000E+00  1.06184E+03  4.531E-02  1.200E+01  6.000E-01  1.015E+00
   1    7    6     2     4    0.0000E+00  0.0000E+00   0.0000E+00  0.000E+00  0.000E+00  0.000E+00  1.05708E+03  0.000E+00  1.200E+01  6.000E-01  1.000E+00
   1    8    6     2     5    0.0000E+00  0.0000E+00   0.0000E+00  0.000E+00  0.000E+00  0.000E+00  1.05236E+03  0.000E+00  1.200E+01  6.000E-01  1.000E+00
   1    3    5     3     1    1.0000E+01  1.5789E+00   8.4211E+00  0.000E+00  0.000E+00  0.000E+00  1.07555E+03  1.909E+00  9.636E+00  7.227E-01  1.092E+00
   1    3    6     3     2    8.4211E+00  1.1781E+00   7.2430E+00  0.000E+00  0.000E+00  0.000E+00  1.07264E+03  1.727E+00  8.909E+00  6.682E-01  8.815E-01
   1    3    7     3     3    7.2430E+00  7.1676E-01   6.5263E+00  0.000E+00  0.000E+00  0.000E+00  1.06987E+03  1.555E+00  8.218E+00  5.547E-01  6.460E-01
   1    4    8     3     4    6.5263E+00  1.4232E+00   5.1031E+00  0.000E+00  0.000E+00  0.000E+00  1.06682E+03  1.364E+00  7.455E+00  6.709E-01  1.061E+00
   1    5    8     3     5    5.1031E+00  1.4525E+00   3.6506E+00  0.000E+00  0.000E+00  0.000E+00  1.06362E+03  1.164E+00  6.655E+00  4.991E-01  1.455E+00
   1    6    8     3     6    3.6506E+00  5.5980E-01   3.0908E+00  0.000E+00  0.000E+00  0.000E+00  1.06158E+03  1.036E+00  6.145E+00  1.844E-01  1.518E+00
   1    5   10     4     1    1.0000E+01  9.0525E-01   9.0947E+00  0.000E+00  0.000E+00  0.000E+00  1.07835E+03  6.210E-01  1.000E+01  2.500E-01  1.207E+00
   1    5    9     4     2    9.0947E+00  1.7835E+00   7.3113E+00  0.000E+00  0.000E+00  0.000E+00  1.07148E+03  5.670E-01  1.000E+01  5.000E-01  1.189E+00
   1    6    8     4     3    7.3113E+00  1.2257E+00   6.0855E+00  0.000E+00  0.000E+00  0.000E+00  1.06368E+03  5.021E-01  1.000E+01  3.500E-01  1.167E+00
   1    6    8     5     1    9.1763E+00  2.4495E-01   8.9314E+00  0.000E+00  0.000E+00  0.000E+00  1.05865E+03  6.487E-01  1.425E+01  5.701E-01  1.432E-01
   1    7    7     5     2    8.9314E+00  1.2927E+00   7.6386E+00  0.000E+00  0.000E+00  0.000E+00  1.05413E+03  6.288E-01  1.351E+01  6.757E-01  6.378E-01
   1    8    7     5     3    7.6386E+00  9.3892E-01   6.6997E+00  0.000E+00  0.000E+00  0.000E+00  1.04985E+03  5.978E-01  1.239E+01  4.336E-01  7.217E-01
   1    8    6     5     4    6.6997E+00  9.0452E-01   5.7952E+00  0.000E+00  0.000E+00  0.000E+00  1.04682E+03  5.697E-01  1.141E+01  2.852E-01  1.057E+00
   1    9    6     6     1    5.7952E+00  1.8263E+00   3.9689E+00  0.000E+00  0.000E+00  0.000E+00  1.04319E+03  4.583E-01  1.200E+01  6.000E-01  1.015E+00
   1   10    7     6     2    3.9689E+00  1.1008E+00   2.8681E+00  0.000E+00  0.000E+00  0.000E+00  1.03855E+03  3.701E-01  1.200E+01  6.000E-01  6.116E-01
   1   11    7     6     3    2.8681E+00  7.4675E-01   2.1213E+00  0.000E+00  0.000E+00  0.000E+00  1.03394E+03  3.063E-01  1.200E+01  6.000E-01  4.149E-01
   1   12    7     6     4    2.1213E+00  3.7816E-01   1.7432E+00  0.000E+00  0.000E+00  0.000E+00  1.02935E+03  2.628E-01  1.200E+01  6.000E-01  2.101E-01
   1   13    7     6     5    1.7432E+00 -7.8553E-01   2.5287E+00  0.000E+00  0.000E+00  0.000E+00  1.02619E+03  2.791E-01  1.200E+01  2.400E-01 -1.091E+00
   1   14    9     7     1    1.5000E+02  1.5660E+00   1.4843E+02  0.000E+00  0.000E+00  0.000E+00  1.03987E+03  2.287E+00  5.529E+01  5.593E+00  9.334E-02
   1   13    8     7     2    1.4843E+02  1.5667E+00   1.4687E+02  0.000E+00  0.000E+00  0.000E+00  1.03478E+03  2.279E+00  5.525E+01  6.147E+00  8.495E-02
   1   13    7     7     3    1.4687E+02  1.2807E+00   1.4559E+02  0.000E+00  0.000E+00  0.000E+00  1.02969E+03  2.271E+00  5.522E+01  5.585E+00  7.644E-02
   1   13    6     8     1    1.4812E+02  1.0721E-01   1.4801E+02  0.000E+00  0.000E+00  0.000E+00  1.02468E+03  2.803E+00  4.065E+01  4.142E+00  8.628E-03
   1   13    5     8     2    1.4801E+02 -5.3497E-01   1.4854E+02  0.000E+00  0.000E+00  0.000E+00  1.01843E+03  2.805E+00  4.067E+01  4.144E+00 -4.303E-02
   1   13    4     8     3    1.4854E+02 -1.4061E+00   1.4995E+02  0.000E+00  0.000E+00  0.000E+00  1.01219E+03  2.812E+00  4.077E+01  4.154E+00 -1.128E-01
   1   13    3     8     4    1.4995E+02 -2.0842E+00   1.5203E+02  0.000E+00  0.000E+00  0.000E+00  1.00595E+03  2.824E+00  4.095E+01  4.172E+00 -1.665E-01
   1   13    2     8     5    1.5203E+02 -2.1021E+00   1.5414E+02  0.000E+00  0.000E+00  0.000E+00  9.99713E+02  2.838E+00  4.116E+01  4.194E+00 -1.671E-01
   1   13    1     8     6    1.5414E+02 -1.9194E+00   1.5605E+02  0.000E+00  0.000E+00  0.000E+00  9.94727E+02  2.852E+00  4.136E+01  2.529E+00 -2.530E-01



 UBDSV3 SAVING "           GW ET" ON UNIT  61 AT TIME STEP 10, STRESS PERIOD  10
 UBDSV3 SAVING "    UZF RECHARGE" ON UNIT  61 AT TIME STEP 10, STRESS PERIOD  10
 UBDSV3 SAVING " SURFACE LEAKAGE" ON UNIT  61 AT TIME STEP 10, STRESS PERIOD  10
 UBDSV3 SAVING "       HORT+DUNN" ON UNIT  61 AT TIME STEP 10, STRESS PERIOD  10
 UBDSV3 SAVING "  STORAGE CHANGE" ON UNIT  61 AT TIME STEP 10, STRESS PERIOD  10


UNSATURATED ZONE PACKAGE VOLUMETRIC BUDGET FOR  TIME STEP    10 STRESS PERIOD   10
  ------------------------------------------------------------------------------



     CUMULATIVE VOLUMES      L**3       RATES FOR THIS TIME STEP      L**3/T
     ------------------                 ------------------------

           IN:                                      IN:
           ---                                      ---
        INFILTRATION =  1469512438.3589          INFILTRATION =          16.9500

          OUT:                                     OUT:
          ----                                     ----
              UZF ET =       11615.6164                UZF ET =       0.0000E+00
        UZF RECHARGE =  1170874245.4008          UZF RECHARGE =          54.5729

            IN - OUT =   298626577.3417              IN - OUT =         -37.6229

          STORAGE:                                 STORAGE:
          --------                                 --------
      STORAGE CHANGE =   299587038.8020        STORAGE CHANGE =         -37.5494

 PERCENT DISCREPANCY IS DIFFERENCE BETWEEN IN-OUT MINUS CHANGE IN STORAGE
 DIVIDED BY THE AVERAGE OF IN AND OUT TIMES 100

 PERCENT DISCREPANCY =          -0.02     PERCENT DISCREPANCY =          -0.13






1
  VOLUMETRIC BUDGET FOR ENTIRE MODEL AT END OF TIME STEP   10, STRESS PERIOD  10
  ------------------------------------------------------------------------------

     CUMULATIVE VOLUMES      L**3       RATES FOR THIS TIME STEP      L**3/T
     ------------------                 ------------------------

           IN:                                      IN:
           ---                                      ---
             STORAGE     =    83935720.0000               STORAGE     =           2.9206
       CONSTANT HEAD     =           0.0000         CONSTANT HEAD     =           0.0000
               WELLS     =           0.0000                 WELLS     =           0.0000
     HEAD DEP BOUNDS     =     5162514.0000       HEAD DEP BOUNDS     =           0.2057
      STREAM LEAKAGE     =   982594560.0000        STREAM LEAKAGE     =          37.7774
        UZF RECHARGE     =  1170874624.0000          UZF RECHARGE     =          54.5729
               GW ET     =           0.0000                 GW ET     =           0.0000
     SURFACE LEAKAGE     =           0.0000       SURFACE LEAKAGE     =           0.0000

                TOTAL IN =  2242567424.0000                  TOTAL IN =          95.4766

          OUT:                                     OUT:
          ----                                     ----
             STORAGE     =  1046572992.0000               STORAGE     =          61.3833
       CONSTANT HEAD     =           0.0000         CONSTANT HEAD     =           0.0000
               WELLS     =   315359968.0000                 WELLS     =           0.0000
     HEAD DEP BOUNDS     =     7088266.0000       HEAD DEP BOUNDS     =           0.2845
      STREAM LEAKAGE     =   208862960.0000        STREAM LEAKAGE     =           8.8323
        UZF RECHARGE     =           0.0000          UZF RECHARGE     =           0.0000
               GW ET     =   597041728.0000                 GW ET     =          24.9728
     SURFACE LEAKAGE     =    67618264.0000       SURFACE LEAKAGE     =           0.0000

               TOTAL OUT =  2242544128.0000                 TOTAL OUT =          95.4728

                IN - OUT =       23296.0000                  IN - OUT =       3.7689E-03

     PERCENT DISCREPANCY =           0.00         PERCENT DISCREPANCY =           0.00






         TIME SUMMARY AT END OF TIME STEP   10 IN STRESS PERIOD   10
                    SECONDS     MINUTES      HOURS       DAYS        YEARS
                    -----------------------------------------------------------
   TIME STEP LENGTH 1.95033E+05  3250.6      54.176      2.2573     6.18023E-03
 STRESS PERIOD TIME 1.31823E+06  21971.      366.18      15.257     4.17723E-02
         TOTAL TIME 2.49702E+07 4.16170E+05  6936.2      289.01     0.79126    
1
 
 SOLVING FOR HEAD 
                                                   Max.-Head-Change                         Max.-Flux-Residual
  Residual-Control   Outer-Iter.   Inner-Iter.     Column Row Layer    Maximum-Head-Change  Column Row Layer    Maximum-Flux-Residual          L2-NORM 
          0                 1           2             2    7     1       0.1028826610E+00       4    7    1         0.1926196021E+01      0.6709539103E+01
          0                 2           2             2    7     1       0.3623318565E-01       2    7    1         0.3863078452E+00      0.1327362787E+01
          0                 3           2             2    7     1       0.1275771868E-01       2    7    1         0.1359293529E+00      0.4257542955E+00
          0                 4           2             1    7     1       0.4665498119E-02       1    7    1         0.4961809634E-01      0.1466787483E+00
          0                 5           2             1    7     1       0.1749492193E-02       1    7    1         0.1860958071E-01      0.5104677841E-01
          0                 6           1             1    7     1       0.6558418916E-03       1    7    1         0.6977962713E-02      0.1785690293E-01
          0                 7           1             1    7     1       0.2457926473E-03       1    7    1         0.2615699186E-02      0.6271643704E-02
          0                 8           1             1    7     1       0.9209365388E-04       1    7    1         0.9802428590E-03      0.2210495439E-02

    ------------------------------------------------
       NWT REQUIRED            8 OUTER ITERATIONS 
       AND A TOTAL OF         13 INNER ITERATIONS.
    ------------------------------------------------

 NO OUTPUT CONTROL FOR STRESS PERIOD   10   TIME STEP   11
 
 SOLVING FOR HEAD 
                                                   Max.-Head-Change                         Max.-Flux-Residual
  Residual-Control   Outer-Iter.   Inner-Iter.     Column Row Layer    Maximum-Head-Change  Column Row Layer    Maximum-Flux-Residual          L2-NORM 
          0                 1           2             2    7     1       0.1091741634E+00       4    7    1         0.1920584861E+01      0.6593483377E+01
          0                 2           2             2    7     1       0.3842568025E-01       2    7    1         0.3726234555E+00      0.1259496551E+01
          0                 3           2             2    7     1       0.1331572338E-01       2    7    1         0.1290378008E+00      0.3991098832E+00
          0                 4           2             1    7     1       0.4931013399E-02       1    7    1         0.4768819966E-01      0.1365692531E+00
          0                 5           2             1    7     1       0.1848236787E-02       1    7    1         0.1787922227E-01      0.4723387741E-01
          0                 6           1             1    7     1       0.6924896188E-03       1    7    1         0.6700992138E-02      0.1642401828E-01
          0                 7           1             1    7     1       0.2593687883E-03       1    7    1         0.2510491614E-02      0.5735264032E-02
          0                 8           1             1    7     1       0.9711446600E-04       1    7    1         0.9402264778E-03      0.2010535913E-02

    ------------------------------------------------
       NWT REQUIRED            8 OUTER ITERATIONS 
       AND A TOTAL OF         13 INNER ITERATIONS.
    ------------------------------------------------

 NO OUTPUT CONTROL FOR STRESS PERIOD   10   TIME STEP   12
 
 SOLVING FOR HEAD 
                                                   Max.-Head-Change                         Max.-Flux-Residual
  Residual-Control   Outer-Iter.   Inner-Iter.     Column Row Layer    Maximum-Head-Change  Column Row Layer    Maximum-Flux-Residual          L2-NORM 
          0                 1           2             2    7     1       0.1127919004E+00       4    7    1         0.1914324737E+01      0.6493849466E+01
          0                 2           2             2    7     1       0.3851925841E-01       2    7    1         0.3399361673E+00      0.1193542941E+01
          0                 3           2             2    7     1       0.1314973798E-01       2    7    1         0.1159744629E+00      0.3691975017E+00
          0                 4           2             2    7     1       0.4488415582E-02       2    7    1         0.3959900418E-01      0.1243886280E+00
          0                 5           2             2    7     1       0.1531927392E-02       2    7    1         0.1351507067E-01      0.4239166959E-01
          0                 6           1             2    7     1       0.5228397123E-03       2    7    1         0.4612825004E-02      0.1451865534E-01
          0                 7           1             2    7     1       0.1784414302E-03       2    7    1         0.1574316740E-02      0.4989158443E-02
          0                 8           1             6   15     1       0.6117724373E-04       6   15    1         0.5383438952E-03      0.1718994285E-02

    ------------------------------------------------
       NWT REQUIRED            8 OUTER ITERATIONS 
       AND A TOTAL OF         13 INNER ITERATIONS.
    ------------------------------------------------

 NO OUTPUT CONTROL FOR STRESS PERIOD   10   TIME STEP   13
 
 SOLVING FOR HEAD 
                                                   Max.-Head-Change                         Max.-Flux-Residual
  Residual-Control   Outer-Iter.   Inner-Iter.     Column Row Layer    Maximum-Head-Change  Column Row Layer    Maximum-Flux-Residual          L2-NORM 
          0                 1           2             9   10     1       0.1425388338E+00       4    7    1         0.1906678939E+01      0.6497401302E+01
          0                 2           2             9   10     1       0.5169856810E-01       9   10    1         0.4156022212E+00      0.1224786009E+01
          0                 3           2             9   10     1       0.1873998649E-01       9   10    1         0.1507522666E+00      0.3855723892E+00
          0                 4           2             9   10     1       0.6790264135E-02       9   10    1         0.5463668827E-01      0.1314555966E+00
          0                 5           2             9   10     1       0.2459654142E-02       9   10    1         0.1979575949E-01      0.4530494285E-01
          0                 6           1             9   10     1       0.8907590362E-03       9   10    1         0.7170227143E-02      0.1569352779E-01
          0                 7           1             9   10     1       0.3225267097E-03       9   10    1         0.2596562135E-02      0.5457216762E-02
          0                 8           1             9   10     1       0.1167629585E-03       9   10    1         0.9401292684E-03      0.1903987305E-02
          0                 9           1             9   10     1       0.4226583977E-04       9   10    1         0.3403402770E-03      0.6662348680E-03

    ------------------------------------------------
       NWT REQUIRED            9 OUTER ITERATIONS 
       AND A TOTAL OF         14 INNER ITERATIONS.
    ------------------------------------------------

 NO OUTPUT CONTROL FOR STRESS PERIOD   10   TIME STEP   14
 
 SOLVING FOR HEAD 
                                                   Max.-Head-Change                         Max.-Flux-Residual
  Residual-Control   Outer-Iter.   Inner-Iter.     Column Row Layer    Maximum-Head-Change  Column Row Layer    Maximum-Flux-Residual          L2-NORM 
          0                 1           2             9   10     1       0.1499890968E+00       4    7    1         0.1898212637E+01      0.6368047292E+01
          0                 2           2             9   10     1       0.5358749175E-01       9   10    1         0.3920364352E+00      0.1143085794E+01
          0                 3           2             9   10     1       0.1913273523E-01       9   10    1         0.1400553164E+00      0.3487899097E+00
          0                 4           2             9   10     1       0.6827921313E-02       9   10    1         0.4999809103E-01      0.1163397070E+00
          0                 5           2             9   10     1       0.2435817184E-02       9   10    1         0.1784118185E-01      0.3927285506E-01
          0                 6           1             9   10     1       0.8687151440E-03       9   10    1         0.6364277707E-02      0.1333085019E-01
          0                 7           1             9   10     1       0.3097486452E-03       9   10    1         0.2269635051E-02      0.4544243247E-02
          0                 8           1             9   10     1       0.1104224789E-03       9   10    1         0.8092209775E-03      0.1554818034E-02
          0                 9           1             9   10     1       0.3935811931E-04       9   10    1         0.2884679507E-03      0.5337660676E-03

    ------------------------------------------------
       NWT REQUIRED            9 OUTER ITERATIONS 
       AND A TOTAL OF         14 INNER ITERATIONS.
    ------------------------------------------------

 OUTPUT CONTROL FOR STRESS PERIOD   10   TIME STEP   15
    PRINT BUDGET
    PRINT HEAD FOR ALL LAYERS
    SAVE HEAD FOR ALL LAYERS
    SAVE BUDGET

  HEAD DEP BOUNDS   PERIOD   10   STEP    15
 BOUNDARY      1   LAYER   1   ROW    13   COL     1   RATE   -0.284276    
 BOUNDARY      2   LAYER   1   ROW    14   COL     9   RATE    0.205787    



 STREAM LISTING     PERIOD     10   STEP       15

 LAYER ROW COL. STREAM  RCH.  FLOW INTO     FLOW TO   FLOW OUT OF   OVRLND.     DIRECT     STREAM       STREAM     STREAM     STREAM   STREAMBED  STREAMBED
                SEG.NO.  NO.  STRM. RCH.    AQUIFER    STRM. RCH.    RUNOFF     PRECIP       ET          HEAD       DEPTH      WIDTH   CONDCTNC.   GRADIENT

   1    1    1     1     1    2.5000E+01  1.1443E+00   2.3856E+01  0.000E+00  0.000E+00  0.000E+00  1.09422E+03  1.172E+00  1.295E+01  5.827E-01  6.547E-01
   1    2    2     1     2    2.3856E+01  2.4485E+00   2.1407E+01  0.000E+00  0.000E+00  0.000E+00  1.08920E+03  1.144E+00  1.258E+01  8.804E-01  9.270E-01
   1    3    3     1     3    2.1407E+01  2.9464E+00   1.8461E+01  0.000E+00  0.000E+00  0.000E+00  1.08352E+03  1.099E+00  1.198E+01  7.188E-01  1.366E+00
   1    3    4     1     4    1.8461E+01  2.5049E+00   1.5956E+01  0.000E+00  0.000E+00  0.000E+00  1.07846E+03  1.053E+00  1.114E+01  6.180E-01  1.351E+00
   1    4    5     2     1    5.9559E+00  2.6818E+00   3.2742E+00  0.000E+00  0.000E+00  0.000E+00  1.07237E+03  4.382E-01  1.200E+01  7.800E-01  1.146E+00
   1    5    6     2     2    3.2742E+00  1.9726E+00   1.3016E+00  0.000E+00  0.000E+00  0.000E+00  1.06680E+03  2.876E-01  1.200E+01  6.000E-01  1.096E+00
   1    6    6     2     3    1.3016E+00  1.3016E+00   0.0000E+00  0.000E+00  0.000E+00  0.000E+00  1.06184E+03  4.613E-02  1.200E+01  6.000E-01  1.015E+00
   1    7    6     2     4    0.0000E+00  0.0000E+00   0.0000E+00  0.000E+00  0.000E+00  0.000E+00  1.05708E+03  0.000E+00  1.200E+01  6.000E-01  1.000E+00
   1    8    6     2     5    0.0000E+00  0.0000E+00   0.0000E+00  0.000E+00  0.000E+00  0.000E+00  1.05236E+03  0.000E+00  1.200E+01  6.000E-01  1.000E+00
   1    3    5     3     1    1.0000E+01  1.6423E+00   8.3577E+00  0.000E+00  0.000E+00  0.000E+00  1.07555E+03  1.909E+00  9.636E+00  7.227E-01  1.136E+00
   1    3    6     3     2    8.3577E+00  1.2301E+00   7.1276E+00  0.000E+00  0.000E+00  0.000E+00  1.07264E+03  1.727E+00  8.909E+00  6.682E-01  9.205E-01
   1    3    7     3     3    7.1276E+00  7.3852E-01   6.3891E+00  0.000E+00  0.000E+00  0.000E+00  1.06987E+03  1.555E+00  8.218E+00  5.547E-01  6.657E-01
   1    4    8     3     4    6.3891E+00  1.4136E+00   4.9754E+00  0.000E+00  0.000E+00  0.000E+00  1.06682E+03  1.364E+00  7.455E+00  6.709E-01  1.054E+00
   1    5    8     3     5    4.9754E+00  1.4453E+00   3.5301E+00  0.000E+00  0.000E+00  0.000E+00  1.06362E+03  1.164E+00  6.655E+00  4.991E-01  1.448E+00
   1    6    8     3     6    3.5301E+00  5.5980E-01   2.9703E+00  0.000E+00  0.000E+00  0.000E+00  1.06158E+03  1.036E+00  6.145E+00  1.844E-01  1.518E+00
   1    5   10     4     1    1.0000E+01  9.0525E-01   9.0947E+00  0.000E+00  0.000E+00  0.000E+00  1.07835E+03  6.210E-01  1.000E+01  2.500E-01  1.207E+00
   1    5    9     4     2    9.0947E+00  1.7835E+00   7.3113E+00  0.000E+00  0.000E+00  0.000E+00  1.07148E+03  5.670E-01  1.000E+01  5.000E-01  1.189E+00
   1    6    8     4     3    7.3113E+00  1.2257E+00   6.0855E+00  0.000E+00  0.000E+00  0.000E+00  1.06368E+03  5.021E-01  1.000E+01  3.500E-01  1.167E+00
   1    6    8     5     1    9.0559E+00  2.3743E-01   8.8185E+00  0.000E+00  0.000E+00  0.000E+00  1.05865E+03  6.457E-01  1.414E+01  5.657E-01  1.399E-01
   1    7    7     5     2    8.8185E+00  1.2708E+00   7.5477E+00  0.000E+00  0.000E+00  0.000E+00  1.05413E+03  6.261E-01  1.341E+01  6.707E-01  6.316E-01
   1    8    7     5     3    7.5477E+00  9.1914E-01   6.6285E+00  0.000E+00  0.000E+00  0.000E+00  1.04985E+03  5.954E-01  1.231E+01  4.307E-01  7.114E-01
   1    8    6     5     4    6.6285E+00  8.7804E-01   5.7505E+00  0.000E+00  0.000E+00  0.000E+00  1.04682E+03  5.678E-01  1.134E+01  2.836E-01  1.032E+00
   1    9    6     6     1    5.7505E+00  1.7944E+00   3.9561E+00  0.000E+00  0.000E+00  0.000E+00  1.04318E+03  4.567E-01  1.200E+01  6.000E-01  9.969E-01
   1   10    7     6     2    3.9561E+00  1.0797E+00   2.8763E+00  0.000E+00  0.000E+00  0.000E+00  1.03855E+03  3.699E-01  1.200E+01  6.000E-01  5.999E-01
   1   11    7     6     3    2.8763E+00  7.2829E-01   2.1481E+00  0.000E+00  0.000E+00  0.000E+00  1.03394E+03  3.076E-01  1.200E+01  6.000E-01  4.046E-01
   1   12    7     6     4    2.1481E+00  3.7704E-01   1.7710E+00  0.000E+00  0.000E+00  0.000E+00  1.02936E+03  2.650E-01  1.200E+01  6.000E-01  2.095E-01
   1   13    7     6     5    1.7710E+00 -7.8329E-01   2.5543E+00  0.000E+00  0.000E+00  0.000E+00  1.02619E+03  2.812E-01  1.200E+01  2.400E-01 -1.088E+00
   1   14    9     7     1    1.5000E+02  1.5838E+00   1.4842E+02  0.000E+00  0.000E+00  0.000E+00  1.03987E+03  2.287E+00  5.529E+01  5.593E+00  9.440E-02
   1   13    8     7     2    1.4842E+02  1.5743E+00   1.4684E+02  0.000E+00  0.000E+00  0.000E+00  1.03478E+03  2.279E+00  5.525E+01  6.147E+00  8.536E-02
   1   13    7     7     3    1.4684E+02  1.3197E+00   1.4552E+02  0.000E+00  0.000E+00  0.000E+00  1.02969E+03  2.271E+00  5.522E+01  5.585E+00  7.877E-02
   1   13    6     8     1    1.4808E+02  1.3062E-01   1.4795E+02  0.000E+00  0.000E+00  0.000E+00  1.02468E+03  2.803E+00  4.064E+01  4.141E+00  1.051E-02
   1   13    5     8     2    1.4795E+02 -5.3002E-01   1.4848E+02  0.000E+00  0.000E+00  0.000E+00  1.01843E+03  2.804E+00  4.066E+01  4.143E+00 -4.264E-02
   1   13    4     8     3    1.4848E+02 -1.4008E+00   1.4988E+02  0.000E+00  0.000E+00  0.000E+00  1.01219E+03  2.811E+00  4.076E+01  4.154E+00 -1.124E-01
   1   13    3     8     4    1.4988E+02 -2.0810E+00   1.5196E+02  0.000E+00  0.000E+00  0.000E+00  1.00595E+03  2.823E+00  4.094E+01  4.172E+00 -1.663E-01
   1   13    2     8     5    1.5196E+02 -2.0914E+00   1.5405E+02  0.000E+00  0.000E+00  0.000E+00  9.99713E+02  2.838E+00  4.115E+01  4.193E+00 -1.663E-01
   1   13    1     8     6    1.5405E+02 -1.9069E+00   1.5596E+02  0.000E+00  0.000E+00  0.000E+00  9.94727E+02  2.852E+00  4.135E+01  2.528E+00 -2.514E-01



 UBDSV3 SAVING "           GW ET" ON UNIT  61 AT TIME STEP 15, STRESS PERIOD  10
 UBDSV3 SAVING "    UZF RECHARGE" ON UNIT  61 AT TIME STEP 15, STRESS PERIOD  10
 UBDSV3 SAVING " SURFACE LEAKAGE" ON UNIT  61 AT TIME STEP 15, STRESS PERIOD  10
 UBDSV3 SAVING "       HORT+DUNN" ON UNIT  61 AT TIME STEP 15, STRESS PERIOD  10
 UBDSV3 SAVING "  STORAGE CHANGE" ON UNIT  61 AT TIME STEP 15, STRESS PERIOD  10


UNSATURATED ZONE PACKAGE VOLUMETRIC BUDGET FOR  TIME STEP    15 STRESS PERIOD   10
  ------------------------------------------------------------------------------



     CUMULATIVE VOLUMES      L**3       RATES FOR THIS TIME STEP      L**3/T
     ------------------                 ------------------------

           IN:                                      IN:
           ---                                      ---
        INFILTRATION =  1491712977.9253          INFILTRATION =          16.9500

          OUT:                                     OUT:
          ----                                     ----
              UZF ET =       11615.6164                UZF ET =       0.0000E+00
        UZF RECHARGE =  1237131527.9165          UZF RECHARGE =          48.5977

            IN - OUT =   254569834.3925              IN - OUT =         -31.6477

          STORAGE:                                 STORAGE:
          --------                                 --------
      STORAGE CHANGE =   255595273.7205        STORAGE CHANGE =         -31.6202

 PERCENT DISCREPANCY IS DIFFERENCE BETWEEN IN-OUT MINUS CHANGE IN STORAGE
 DIVIDED BY THE AVERAGE OF IN AND OUT TIMES 100

 PERCENT DISCREPANCY =          -0.02     PERCENT DISCREPANCY =          -0.06






1
              HEAD IN LAYER   1 AT END OF TIME STEP  15 IN STRESS PERIOD   10
  ---------------------------------------------------------------------------

           1       2       3       4       5       6       7       8       9      10
 ...................................................................................
   1  1092.26 1087.81 6999.00 6999.00 6999.00 6999.00 6999.00 6999.00 6999.00 6999.00
   2  1089.51 1086.42 1078.54 6999.00 6999.00 1080.52 1079.36 1075.39 6999.00 6999.00
   3  6999.00 1079.01 1079.19 1074.40 1073.27 1070.80 1068.54 1071.26 6999.00 6999.00
   4  1076.08 1071.67 1065.44 1063.77 1066.26 1061.61 1060.25 1064.71 1062.37 6999.00
   5  1072.54 1064.62 1056.42 1053.72 1055.93 1060.59 1057.33 1060.72 1064.37 1065.90
   6  1068.62 1059.46 1054.67 1041.35 1044.25 1053.55 1054.19 1058.23 1058.14 1068.01
   7  1065.60 1054.40 1049.45 1033.07 1036.49 1046.15 1052.23 1052.92 1053.79 6999.00
   8  6999.00 1048.55 1044.69 1029.14 1032.36 1043.72 1047.71 1049.17 1053.98 6999.00
   9  6999.00 1042.43 1039.81 1025.32 1028.89 1040.19 1040.42 1043.08 1049.28 6999.00
  10  6999.00 1036.08 1034.95 1023.06 1025.33 1032.57 1036.75 1039.04 1046.85 1059.24
  11  6999.00 1024.42 1024.91 1024.36 1026.00 1029.17 1032.73 1035.81 1042.73 6999.00
  12  1006.88 1014.03 1016.01 1019.60 1022.35 1025.67 1028.73 1031.17 1036.60 6999.00
  13   995.48 1000.21 1006.45 1012.52 1018.56 1024.65 1029.45 1034.52 1036.01 6999.00
  14  6999.00 1015.46 1023.07 1027.94 1031.51 1034.30 1035.74 1036.44 1039.58 6999.00
  15  6999.00 6999.00 1038.75 1039.68 1042.85 1043.71 6999.00 6999.00 6999.00 6999.00
1
              HEAD IN LAYER   2 AT END OF TIME STEP  15 IN STRESS PERIOD   10
  ---------------------------------------------------------------------------

           1       2       3       4       5       6       7       8       9      10
 ...................................................................................
   1  1091.21 1087.37 6999.00 6999.00 6999.00 6999.00 6999.00 6999.00 6999.00 6999.00
   2  1089.09 1081.60 1076.21 6999.00 6999.00 1078.83 1077.83 1075.01 6999.00 6999.00
   3  6999.00 1075.57 1069.35 1065.47 1064.63 1065.82 1066.91 1069.76 6999.00 6999.00
   4  1074.49 1070.05 1063.94 1060.11 1058.59 1058.07 1059.35 1062.56 1062.12 6999.00
   5  1071.00 1063.61 1057.68 1054.93 1054.48 1054.65 1054.87 1056.61 1060.41 1064.52
   6  1067.21 1058.75 1053.01 1050.08 1050.06 1051.05 1052.19 1053.98 1057.62 1067.00
   7  1064.21 1053.82 1048.22 1045.42 1045.76 1047.08 1048.85 1051.28 1054.00 6999.00
   8  6999.00 1047.74 1043.51 1041.05 1041.56 1042.97 1044.69 1048.64 1053.17 6999.00
   9  6999.00 1041.44 1038.47 1036.65 1037.35 1038.82 1040.18 1043.07 1048.88 6999.00
  10  6999.00 1034.80 1033.28 1032.63 1033.63 1035.10 1036.34 1039.09 1046.41 1057.87
  11  6999.00 1025.21 1026.39 1028.84 1030.44 1032.09 1033.54 1035.85 1041.72 6999.00
  12  1007.25 1015.49 1020.83 1024.81 1027.51 1029.73 1031.34 1032.75 1036.67 6999.00
  13  1000.54 1008.40 1016.87 1022.34 1025.91 1028.74 1031.08 1033.42 1035.93 6999.00
  14  6999.00 1015.82 1022.52 1027.27 1030.76 1033.33 1034.44 1035.78 1037.37 6999.00
  15  6999.00 6999.00 1037.60 1038.86 1041.77 1042.83 6999.00 6999.00 6999.00 6999.00

 HEAD WILL BE SAVED ON UNIT   58 AT END OF TIME STEP   15, STRESS PERIOD   10
1
  VOLUMETRIC BUDGET FOR ENTIRE MODEL AT END OF TIME STEP   15, STRESS PERIOD  10
  ------------------------------------------------------------------------------

     CUMULATIVE VOLUMES      L**3       RATES FOR THIS TIME STEP      L**3/T
     ------------------                 ------------------------

           IN:                                      IN:
           ---                                      ---
             STORAGE     =    87310416.0000               STORAGE     =           2.5221
       CONSTANT HEAD     =           0.0000         CONSTANT HEAD     =           0.0000
               WELLS     =           0.0000                 WELLS     =           0.0000
     HEAD DEP BOUNDS     =     5431990.0000       HEAD DEP BOUNDS     =           0.2058
      STREAM LEAKAGE     =  1032122816.0000        STREAM LEAKAGE     =          37.8375
        UZF RECHARGE     =  1237132032.0000          UZF RECHARGE     =          48.5977
               GW ET     =           0.0000                 GW ET     =           0.0000
     SURFACE LEAKAGE     =           0.0000       SURFACE LEAKAGE     =           0.0000

                TOTAL IN =  2361997312.0000                  TOTAL IN =          89.1630

          OUT:                                     OUT:
          ----                                     ----
             STORAGE     =  1121296768.0000               STORAGE     =          55.0053
       CONSTANT HEAD     =           0.0000         CONSTANT HEAD     =           0.0000
               WELLS     =   315359968.0000                 WELLS     =           0.0000
     HEAD DEP BOUNDS     =     7460684.0000       HEAD DEP BOUNDS     =           0.2843
      STREAM LEAKAGE     =   220400064.0000        STREAM LEAKAGE     =           8.7934
        UZF RECHARGE     =           0.0000          UZF RECHARGE     =           0.0000
               GW ET     =   629835712.0000                 GW ET     =          25.0793
     SURFACE LEAKAGE     =    67618264.0000       SURFACE LEAKAGE     =           0.0000

               TOTAL OUT =  2361971712.0000                 TOTAL OUT =          89.1623

                IN - OUT =       25600.0000                  IN - OUT =       7.2479E-04

     PERCENT DISCREPANCY =           0.00         PERCENT DISCREPANCY =           0.00






         TIME SUMMARY AT END OF TIME STEP   15 IN STRESS PERIOD   10
                    SECONDS     MINUTES      HOURS       DAYS        YEARS
                    -----------------------------------------------------------
   TIME STEP LENGTH 3.14103E+05  5235.0      87.251      3.6354     9.95332E-03
 STRESS PERIOD TIME 2.62800E+06  43800.      730.00      30.417     8.32763E-02
         TOTAL TIME 2.62800E+07 4.38000E+05  7300.0      304.17     0.83276    
1
1
                            STRESS PERIOD NO.   11, LENGTH =   2628000.    
                            -----------------------------------------------

                              NUMBER OF TIME STEPS =    15

                               MULTIPLIER FOR DELT =     1.100

                            INITIAL TIME STEP SIZE =   82713.07    

 WELL NO.  LAYER   ROW   COL   STRESS RATE         
 --------------------------------------------------
      1      1      6      4      -3.000    
      2      1      6      5      -3.000    
      3      1      7      4      -3.000    
      4      1      7      5      -3.000    
      5      1      8      4      -3.000    
      6      1      8      5      -3.000    
      7      1      9      4      -3.000    
      8      1      9      5      -3.000    
      9      1     10      4      -3.000    
     10      1     10      5      -3.000    

     10 WELLS

 REUSING NON-PARAMETER GHB CELLS FROM LAST STRESS PERIOD

      2 GHB CELLS

 REUSING STREAM SEGMENT DATA FROM LAST STRESS PERIOD



            AREAL INFILTRATION RATE
 READING ON UNIT   19 WITH FORMAT: (10F4.0)            

            1           2           3           4           5           6           7           8           9          10
 ........................................................................................................................
   1   1.0000E-09  2.0000E-09   0.000       0.000       0.000       0.000       0.000       0.000       0.000       0.000    
   2   2.0000E-09  1.0000E-09  2.0000E-09   0.000       0.000      8.0000E-09  8.0000E-09  5.0000E-09   0.000       0.000    
   3    0.000      5.0000E-09  1.0000E-09  1.0000E-09  8.0000E-09  8.0000E-09  5.0000E-09  5.0000E-09   0.000       0.000    
   4   8.0000E-09  5.0000E-09  1.0000E-09  1.0000E-09  1.0000E-09  1.0000E-09  1.0000E-09  1.0000E-09  2.0000E-09   0.000    
   5   8.0000E-09  5.0000E-09  1.0000E-09  1.0000E-09  1.0000E-09  1.0000E-09  1.0000E-09  1.0000E-09  1.0000E-09  1.0000E-09
   6   8.0000E-09  5.0000E-09  5.0000E-09  2.0000E-09  2.0000E-09  1.0000E-09  1.0000E-09  1.0000E-09  1.0000E-09  5.0000E-09
   7   8.0000E-09  5.0000E-09  5.0000E-09  2.0000E-09  2.0000E-09  1.0000E-09  1.0000E-09  2.0000E-09  2.0000E-09   0.000    
   8    0.000      5.0000E-09  5.0000E-09  2.0000E-09  2.0000E-09  1.0000E-09  1.0000E-09  2.0000E-09  5.0000E-09   0.000    
   9    0.000      5.0000E-09  5.0000E-09  2.0000E-09  2.0000E-09  1.0000E-09  1.0000E-09  2.0000E-09  5.0000E-09   0.000    
  10    0.000      5.0000E-09  5.0000E-09  2.0000E-09  2.0000E-09  1.0000E-09  1.0000E-09  2.0000E-09  5.0000E-09  8.0000E-09
  11    0.000      1.0000E-09  1.0000E-09  1.0000E-09  1.0000E-09  1.0000E-09  1.0000E-09  2.0000E-09  5.0000E-09   0.000    
  12   1.0000E-09  1.0000E-09  1.0000E-09  1.0000E-09  1.0000E-09  1.0000E-09  1.0000E-09  1.0000E-09  2.0000E-09   0.000    
  13   1.0000E-09  1.0000E-09  2.0000E-09  2.0000E-09  2.0000E-09  2.0000E-09  2.0000E-09  1.0000E-09  1.0000E-09   0.000    
  14    0.000      2.0000E-09  5.0000E-09  5.0000E-09  5.0000E-09  5.0000E-09  5.0000E-09  2.0000E-09  1.0000E-09   0.000    
  15    0.000       0.000      8.0000E-09  8.0000E-09  8.0000E-09  8.0000E-09   0.000       0.000       0.000       0.000    

USING ET RATE FROM PREVIOUS STRESS PERIOD. CURRENT PERIOD IS:      11

 USING ET EXTINCTION DEPTH FROM PREVIOUS STRESS PERIOD. CURRENT PERIOD IS:      11

 USING EXTINCTION WATER CONTENT FROM PREVIOUS STRESS PERIOD. CURRENT PERIOD IS:      11
 
 SOLVING FOR HEAD 
                                                   Max.-Head-Change                         Max.-Flux-Residual
  Residual-Control   Outer-Iter.   Inner-Iter.     Column Row Layer    Maximum-Head-Change  Column Row Layer    Maximum-Flux-Residual          L2-NORM 
          0                 1           2             9   10     1       0.3742944764E-01       5   10    1        -0.1552234765E+01      0.5463156295E+01
          0                 2           2             9   10     1       0.1322047493E-01       9   10    1         0.3646054491E+00      0.1041641639E+01
          0                 3           2             9   10     1       0.4669019491E-02       9   10    1         0.1287403978E+00      0.3311297663E+00
          0                 4           2             9   10     1       0.1648785190E-02       9   10    1         0.4546958610E-01      0.1106410132E+00
          0                 5           1             9   10     1       0.5821996060E-03       9   10    1         0.1605608290E-01      0.3729302774E-01
          0                 6           1             9   10     1       0.2055682309E-03       9   10    1         0.5669496744E-02      0.1264298020E-01
          0                 7           1             9   10     1       0.7258070560E-04       9   10    1         0.2001809420E-02      0.4306136367E-02

    ------------------------------------------------
       NWT REQUIRED            7 OUTER ITERATIONS 
       AND A TOTAL OF         11 INNER ITERATIONS.
    ------------------------------------------------

 NO OUTPUT CONTROL FOR STRESS PERIOD   11   TIME STEP    1
 
 SOLVING FOR HEAD 
                                                   Max.-Head-Change                         Max.-Flux-Residual
  Residual-Control   Outer-Iter.   Inner-Iter.     Column Row Layer    Maximum-Head-Change  Column Row Layer    Maximum-Flux-Residual          L2-NORM 
          0                 1           2             9   10     1       0.4095810194E-01       5   10    1        -0.1594477905E+01      0.5544168465E+01
          0                 2           2             9   10     1       0.1446179680E-01       9   10    1         0.3626692884E+00      0.1078222361E+01
          0                 3           2             9   10     1       0.5105549506E-02       9   10    1         0.1280168918E+00      0.3229431213E+00
          0                 4           2             9   10     1       0.1802261406E-02       9   10    1         0.4519691336E-01      0.1071207843E+00
          0                 5           1             9   10     1       0.6361491673E-03       9   10    1         0.1595381896E-01      0.3591009272E-01
          0                 6           1             9   10     1       0.2245296323E-03       9   10    1         0.5631211259E-02      0.1210387039E-01
          0                 7           1             9   10     1       0.7924416552E-04       9   10    1         0.1987513957E-02      0.4097561875E-02

    ------------------------------------------------
       NWT REQUIRED            7 OUTER ITERATIONS 
       AND A TOTAL OF         11 INNER ITERATIONS.
    ------------------------------------------------

 NO OUTPUT CONTROL FOR STRESS PERIOD   11   TIME STEP    2
 
 SOLVING FOR HEAD 
                                                   Max.-Head-Change                         Max.-Flux-Residual
  Residual-Control   Outer-Iter.   Inner-Iter.     Column Row Layer    Maximum-Head-Change  Column Row Layer    Maximum-Flux-Residual          L2-NORM 
          0                 1           2             9   10     1       0.4479325169E-01       5   10    1        -0.1586287271E+01      0.5489711558E+01
          0                 2           2             9   10     1       0.1580868133E-01       9   10    1         0.3605310284E+00      0.1046100616E+01
          0                 3           2             9   10     1       0.5578246479E-02       9   10    1         0.1272051882E+00      0.3077714345E+00
          0                 4           2             9   10     1       0.1968060887E-02       9   10    1         0.4488711907E-01      0.1008249062E+00
          0                 5           1             9   10     1       0.6942735091E-03       9   10    1         0.1583581055E-01      0.3340341268E-01
          0                 6           1             9   10     1       0.2448965922E-03       9   10    1         0.5586309822E-02      0.1113053693E-01
          0                 7           1             9   10     1       0.8637763411E-04       9   10    1         0.1970461553E-02      0.3726184603E-02

    ------------------------------------------------
       NWT REQUIRED            7 OUTER ITERATIONS 
       AND A TOTAL OF         11 INNER ITERATIONS.
    ------------------------------------------------

 NO OUTPUT CONTROL FOR STRESS PERIOD   11   TIME STEP    3
 
 SOLVING FOR HEAD 
                                                   Max.-Head-Change                         Max.-Flux-Residual
  Residual-Control   Outer-Iter.   Inner-Iter.     Column Row Layer    Maximum-Head-Change  Column Row Layer    Maximum-Flux-Residual          L2-NORM 
          0                 1           2             9   10     1       0.4590069897E-01       5   10    1        -0.1577458626E+01      0.5410510498E+01
          0                 2           2             9   10     1       0.1573225403E-01       9   10    1         0.3262763500E+00      0.9986569462E+00
          0                 3           2             9   10     1       0.5391161939E-02       9   10    1         0.1117985815E+00      0.2867458283E+00
          0                 4           2             9   10     1       0.1847206034E-02       9   10    1         0.3831280746E-01      0.9259142459E-01
          0                 5           1             9   10     1       0.6328545175E-03       9   10    1         0.1312665893E-01      0.3027006107E-01
          0                 6           1             9   10     1       0.2167995086E-03       9   10    1         0.4497142208E-02      0.9955293845E-02
          0                 7           1             9   10     1       0.7426531528E-04       9   10    1         0.1540575165E-02      0.3289108145E-02

    ------------------------------------------------
       NWT REQUIRED            7 OUTER ITERATIONS 
       AND A TOTAL OF         11 INNER ITERATIONS.
    ------------------------------------------------

 NO OUTPUT CONTROL FOR STRESS PERIOD   11   TIME STEP    4
 
 SOLVING FOR HEAD 
                                                   Max.-Head-Change                         Max.-Flux-Residual
  Residual-Control   Outer-Iter.   Inner-Iter.     Column Row Layer    Maximum-Head-Change  Column Row Layer    Maximum-Flux-Residual          L2-NORM 
          0                 1           2             9   10     1       0.4895354703E-01       5   10    1        -0.1567883465E+01      0.5353802525E+01
          0                 2           2             9   10     1       0.1677140956E-01       9   10    1         0.3163006084E+00      0.9756952023E+00
          0                 3           2             9   10     1       0.5744629034E-02       9   10    1         0.1083388597E+00      0.2783919219E+00
          0                 4           2             9   10     1       0.1967373811E-02       9   10    1         0.3710940401E-01      0.8975251326E-01
          0                 5           1             9   10     1       0.6736907831E-03       9   10    1         0.1270825683E-01      0.2930551722E-01
          0                 6           1             9   10     1       0.2306721039E-03       9   10    1         0.4351627163E-02      0.9626276755E-02
          0                 7           1             9   10     1       0.7897668726E-04       9   10    1         0.1489968457E-02      0.3176566652E-02

    ------------------------------------------------
       NWT REQUIRED            7 OUTER ITERATIONS 
       AND A TOTAL OF         11 INNER ITERATIONS.
    ------------------------------------------------

 OUTPUT CONTROL FOR STRESS PERIOD   11   TIME STEP    5
    PRINT BUDGET
    SAVE BUDGET

            WELLS   PERIOD   11   STEP   5
 WELL      1   LAYER   1   ROW     6   COL     4   RATE    -3.00000    
 WELL      2   LAYER   1   ROW     6   COL     5   RATE    -3.00000    
 WELL      3   LAYER   1   ROW     7   COL     4   RATE    -3.00000    
 WELL      4   LAYER   1   ROW     7   COL     5   RATE    -3.00000    
 WELL      5   LAYER   1   ROW     8   COL     4   RATE    -3.00000    
 WELL      6   LAYER   1   ROW     8   COL     5   RATE    -3.00000    
 WELL      7   LAYER   1   ROW     9   COL     4   RATE    -3.00000    
 WELL      8   LAYER   1   ROW     9   COL     5   RATE    -3.00000    
 WELL      9   LAYER   1   ROW    10   COL     4   RATE    -3.00000    
 WELL     10   LAYER   1   ROW    10   COL     5   RATE    -3.00000    

  HEAD DEP BOUNDS   PERIOD   11   STEP     5
 BOUNDARY      1   LAYER   1   ROW    13   COL     1   RATE   -0.284243    
 BOUNDARY      2   LAYER   1   ROW    14   COL     9   RATE    0.205818    



 STREAM LISTING     PERIOD     11   STEP        5

 LAYER ROW COL. STREAM  RCH.  FLOW INTO     FLOW TO   FLOW OUT OF   OVRLND.     DIRECT     STREAM       STREAM     STREAM     STREAM   STREAMBED  STREAMBED
                SEG.NO.  NO.  STRM. RCH.    AQUIFER    STRM. RCH.    RUNOFF     PRECIP       ET          HEAD       DEPTH      WIDTH   CONDCTNC.   GRADIENT

   1    1    1     1     1    2.5000E+01  1.1416E+00   2.3858E+01  0.000E+00  0.000E+00  0.000E+00  1.09422E+03  1.172E+00  1.295E+01  5.827E-01  6.531E-01
   1    2    2     1     2    2.3858E+01  2.4370E+00   2.1421E+01  0.000E+00  0.000E+00  0.000E+00  1.08920E+03  1.144E+00  1.258E+01  8.805E-01  9.225E-01
   1    3    3     1     3    2.1421E+01  2.9475E+00   1.8474E+01  0.000E+00  0.000E+00  0.000E+00  1.08352E+03  1.099E+00  1.198E+01  7.191E-01  1.366E+00
   1    3    4     1     4    1.8474E+01  2.4961E+00   1.5978E+01  0.000E+00  0.000E+00  0.000E+00  1.07846E+03  1.053E+00  1.114E+01  6.183E-01  1.346E+00
   1    4    5     2     1    5.9777E+00  2.6827E+00   3.2950E+00  0.000E+00  0.000E+00  0.000E+00  1.07237E+03  4.394E-01  1.200E+01  7.800E-01  1.146E+00
   1    5    6     2     2    3.2950E+00  1.9735E+00   1.3215E+00  0.000E+00  0.000E+00  0.000E+00  1.06680E+03  2.891E-01  1.200E+01  6.000E-01  1.096E+00
   1    6    6     2     3    1.3215E+00  1.3215E+00   0.0000E+00  0.000E+00  0.000E+00  0.000E+00  1.06184E+03  4.656E-02  1.200E+01  6.000E-01  1.016E+00
   1    7    6     2     4    0.0000E+00  0.0000E+00   0.0000E+00  0.000E+00  0.000E+00  0.000E+00  1.05708E+03  0.000E+00  1.200E+01  6.000E-01  1.000E+00
   1    8    6     2     5    0.0000E+00  0.0000E+00   0.0000E+00  0.000E+00  0.000E+00  0.000E+00  1.05236E+03  0.000E+00  1.200E+01  6.000E-01  1.000E+00
   1    3    5     3     1    1.0000E+01  1.6714E+00   8.3286E+00  0.000E+00  0.000E+00  0.000E+00  1.07555E+03  1.909E+00  9.636E+00  7.227E-01  1.156E+00
   1    3    6     3     2    8.3286E+00  1.2616E+00   7.0671E+00  0.000E+00  0.000E+00  0.000E+00  1.07264E+03  1.727E+00  8.909E+00  6.682E-01  9.440E-01
   1    3    7     3     3    7.0671E+00  7.5569E-01   6.3114E+00  0.000E+00  0.000E+00  0.000E+00  1.06987E+03  1.555E+00  8.218E+00  5.547E-01  6.811E-01
   1    4    8     3     4    6.3114E+00  1.4074E+00   4.9039E+00  0.000E+00  0.000E+00  0.000E+00  1.06682E+03  1.364E+00  7.455E+00  6.709E-01  1.049E+00
   1    5    8     3     5    4.9039E+00  1.4437E+00   3.4603E+00  0.000E+00  0.000E+00  0.000E+00  1.06362E+03  1.164E+00  6.655E+00  4.991E-01  1.446E+00
   1    6    8     3     6    3.4603E+00  5.5980E-01   2.9005E+00  0.000E+00  0.000E+00  0.000E+00  1.06158E+03  1.036E+00  6.145E+00  1.844E-01  1.518E+00
   1    5   10     4     1    1.0000E+01  9.0525E-01   9.0947E+00  0.000E+00  0.000E+00  0.000E+00  1.07835E+03  6.210E-01  1.000E+01  2.500E-01  1.207E+00
   1    5    9     4     2    9.0947E+00  1.7835E+00   7.3113E+00  0.000E+00  0.000E+00  0.000E+00  1.07148E+03  5.670E-01  1.000E+01  5.000E-01  1.189E+00
   1    6    8     4     3    7.3113E+00  1.2257E+00   6.0855E+00  0.000E+00  0.000E+00  0.000E+00  1.06368E+03  5.021E-01  1.000E+01  3.500E-01  1.167E+00
   1    6    8     5     1    8.9860E+00  2.3472E-01   8.7513E+00  0.000E+00  0.000E+00  0.000E+00  1.05864E+03  6.440E-01  1.408E+01  5.631E-01  1.390E-01
   1    7    7     5     2    8.7513E+00  1.2600E+00   7.4913E+00  0.000E+00  0.000E+00  0.000E+00  1.05412E+03  6.244E-01  1.335E+01  6.676E-01  6.291E-01
   1    8    7     5     3    7.4913E+00  9.0988E-01   6.5814E+00  0.000E+00  0.000E+00  0.000E+00  1.04984E+03  5.939E-01  1.225E+01  4.288E-01  7.073E-01
   1    8    6     5     4    6.5814E+00  8.6652E-01   5.7149E+00  0.000E+00  0.000E+00  0.000E+00  1.04682E+03  5.665E-01  1.130E+01  2.825E-01  1.023E+00
   1    9    6     6     1    5.7149E+00  1.7822E+00   3.9326E+00  0.000E+00  0.000E+00  0.000E+00  1.04318E+03  4.550E-01  1.200E+01  6.000E-01  9.901E-01
   1   10    7     6     2    3.9326E+00  1.0652E+00   2.8675E+00  0.000E+00  0.000E+00  0.000E+00  1.03855E+03  3.689E-01  1.200E+01  6.000E-01  5.918E-01
   1   11    7     6     3    2.8675E+00  7.1509E-01   2.1524E+00  0.000E+00  0.000E+00  0.000E+00  1.03394E+03  3.074E-01  1.200E+01  6.000E-01  3.973E-01
   1   12    7     6     4    2.1524E+00  3.7480E-01   1.7776E+00  0.000E+00  0.000E+00  0.000E+00  1.02936E+03  2.655E-01  1.200E+01  6.000E-01  2.082E-01
   1   13    7     6     5    1.7776E+00 -7.8302E-01   2.5606E+00  0.000E+00  0.000E+00  0.000E+00  1.02619E+03  2.817E-01  1.200E+01  2.400E-01 -1.088E+00
   1   14    9     7     1    1.5000E+02  1.5882E+00   1.4841E+02  0.000E+00  0.000E+00  0.000E+00  1.03987E+03  2.287E+00  5.529E+01  5.593E+00  9.466E-02
   1   13    8     7     2    1.4841E+02  1.5757E+00   1.4684E+02  0.000E+00  0.000E+00  0.000E+00  1.03478E+03  2.279E+00  5.525E+01  6.147E+00  8.544E-02
   1   13    7     7     3    1.4684E+02  1.3230E+00   1.4551E+02  0.000E+00  0.000E+00  0.000E+00  1.02969E+03  2.271E+00  5.522E+01  5.585E+00  7.897E-02
   1   13    6     8     1    1.4807E+02  1.3051E-01   1.4794E+02  0.000E+00  0.000E+00  0.000E+00  1.02468E+03  2.803E+00  4.064E+01  4.141E+00  1.050E-02
   1   13    5     8     2    1.4794E+02 -5.1771E-01   1.4846E+02  0.000E+00  0.000E+00  0.000E+00  1.01843E+03  2.804E+00  4.066E+01  4.143E+00 -4.165E-02
   1   13    4     8     3    1.4846E+02 -1.3882E+00   1.4985E+02  0.000E+00  0.000E+00  0.000E+00  1.01219E+03  2.811E+00  4.076E+01  4.153E+00 -1.114E-01
   1   13    3     8     4    1.4985E+02 -2.0695E+00   1.5192E+02  0.000E+00  0.000E+00  0.000E+00  1.00595E+03  2.823E+00  4.093E+01  4.171E+00 -1.654E-01
   1   13    2     8     5    1.5192E+02 -2.0893E+00   1.5401E+02  0.000E+00  0.000E+00  0.000E+00  9.99713E+02  2.838E+00  4.114E+01  4.193E+00 -1.661E-01
   1   13    1     8     6    1.5401E+02 -1.9052E+00   1.5591E+02  0.000E+00  0.000E+00  0.000E+00  9.94726E+02  2.851E+00  4.135E+01  2.528E+00 -2.512E-01



 UBDSV3 SAVING "           GW ET" ON UNIT  61 AT TIME STEP  5, STRESS PERIOD  11
 UBDSV3 SAVING "    UZF RECHARGE" ON UNIT  61 AT TIME STEP  5, STRESS PERIOD  11
 UBDSV3 SAVING " SURFACE LEAKAGE" ON UNIT  61 AT TIME STEP  5, STRESS PERIOD  11
 UBDSV3 SAVING "       HORT+DUNN" ON UNIT  61 AT TIME STEP  5, STRESS PERIOD  11
 UBDSV3 SAVING "  STORAGE CHANGE" ON UNIT  61 AT TIME STEP  5, STRESS PERIOD  11


UNSATURATED ZONE PACKAGE VOLUMETRIC BUDGET FOR  TIME STEP     5 STRESS PERIOD   11
  ------------------------------------------------------------------------------



     CUMULATIVE VOLUMES      L**3       RATES FOR THIS TIME STEP      L**3/T
     ------------------                 ------------------------

           IN:                                      IN:
           ---                                      ---
        INFILTRATION =  1495992612.0447          INFILTRATION =           8.4750

          OUT:                                     OUT:
          ----                                     ----
              UZF ET =       11615.6164                UZF ET =       0.0000E+00
        UZF RECHARGE =  1258798764.1184          UZF RECHARGE =          41.3223

            IN - OUT =   237182232.3099              IN - OUT =         -32.8473

          STORAGE:                                 STORAGE:
          --------                                 --------
      STORAGE CHANGE =   238207427.6496        STORAGE CHANGE =         -32.8473

 PERCENT DISCREPANCY IS DIFFERENCE BETWEEN IN-OUT MINUS CHANGE IN STORAGE
 DIVIDED BY THE AVERAGE OF IN AND OUT TIMES 100

 PERCENT DISCREPANCY =          -0.02     PERCENT DISCREPANCY =           0.00






1
  VOLUMETRIC BUDGET FOR ENTIRE MODEL AT END OF TIME STEP    5, STRESS PERIOD  11
  ------------------------------------------------------------------------------

     CUMULATIVE VOLUMES      L**3       RATES FOR THIS TIME STEP      L**3/T
     ------------------                 ------------------------

           IN:                                      IN:
           ---                                      ---
             STORAGE     =    95485216.0000               STORAGE     =          16.0849
       CONSTANT HEAD     =           0.0000         CONSTANT HEAD     =           0.0000
               WELLS     =           0.0000                 WELLS     =           0.0000
     HEAD DEP BOUNDS     =     5535913.0000       HEAD DEP BOUNDS     =           0.2058
      STREAM LEAKAGE     =  1051230592.0000        STREAM LEAKAGE     =          37.8399
        UZF RECHARGE     =  1258799360.0000          UZF RECHARGE     =          41.3223
               GW ET     =           0.0000                 GW ET     =           0.0000
     SURFACE LEAKAGE     =           0.0000       SURFACE LEAKAGE     =           0.0000

                TOTAL IN =  2411051008.0000                  TOTAL IN =          95.4528

          OUT:                                     OUT:
          ----                                     ----
             STORAGE     =  1137949696.0000               STORAGE     =          31.2898
       CONSTANT HEAD     =           0.0000         CONSTANT HEAD     =           0.0000
               WELLS     =   330509088.0000                 WELLS     =          30.0000
     HEAD DEP BOUNDS     =     7604225.0000       HEAD DEP BOUNDS     =           0.2842
      STREAM LEAKAGE     =   224828448.0000        STREAM LEAKAGE     =           8.7530
        UZF RECHARGE     =           0.0000          UZF RECHARGE     =           0.0000
               GW ET     =   642512896.0000                 GW ET     =          25.1216
     SURFACE LEAKAGE     =    67618264.0000       SURFACE LEAKAGE     =           0.0000

               TOTAL OUT =  2411022592.0000                 TOTAL OUT =          95.4486

                IN - OUT =       28416.0000                  IN - OUT =       4.2801E-03

     PERCENT DISCREPANCY =           0.00         PERCENT DISCREPANCY =           0.00






         TIME SUMMARY AT END OF TIME STEP    5 IN STRESS PERIOD   11
                    SECONDS     MINUTES      HOURS       DAYS        YEARS
                    -----------------------------------------------------------
   TIME STEP LENGTH 1.21100E+05  2018.3      33.639      1.4016     3.83743E-03
 STRESS PERIOD TIME 5.04972E+05  8416.2      140.27      5.8446     1.60016E-02
         TOTAL TIME 2.67850E+07 4.46416E+05  7440.3      310.01     0.84876    
1
 
 SOLVING FOR HEAD 
                                                   Max.-Head-Change                         Max.-Flux-Residual
  Residual-Control   Outer-Iter.   Inner-Iter.     Column Row Layer    Maximum-Head-Change  Column Row Layer    Maximum-Flux-Residual          L2-NORM 
          0                 1           2             9   10     1       0.5343641001E-01       5   10    1        -0.1557489271E+01      0.5323848618E+01
          0                 2           2             9   10     1       0.1829770279E-01       9   10    1         0.3138338757E+00      0.9663886575E+00
          0                 3           2             9   10     1       0.6263964692E-02       9   10    1         0.1074409340E+00      0.2751614164E+00
          0                 4           2             9   10     1       0.2144007518E-02       9   10    1         0.3678094559E-01      0.8868797049E-01
          0                 5           1             9   10     1       0.7337480111E-03       9   10    1         0.1258857358E-01      0.2895476148E-01
          0                 6           1             9   10     1       0.2510874311E-03       9   10    1         0.4308119925E-02      0.9509138213E-02
          0                 7           1             9   10     1       0.8591522531E-04       9   10    1         0.1474199178E-02      0.3136951126E-02

    ------------------------------------------------
       NWT REQUIRED            7 OUTER ITERATIONS 
       AND A TOTAL OF         11 INNER ITERATIONS.
    ------------------------------------------------

 NO OUTPUT CONTROL FOR STRESS PERIOD   11   TIME STEP    6
 
 SOLVING FOR HEAD 
                                                   Max.-Head-Change                         Max.-Flux-Residual
  Residual-Control   Outer-Iter.   Inner-Iter.     Column Row Layer    Maximum-Head-Change  Column Row Layer    Maximum-Flux-Residual          L2-NORM 
          0                 1           2             9   10     1       0.5828254906E-01       5   10    1        -0.1546183129E+01      0.5278371351E+01
          0                 2           2             9   10     1       0.1994522585E-01       9   10    1         0.3111289846E+00      0.9473340097E+00
          0                 3           2             9   10     1       0.6823788572E-02       9   10    1         0.1064542781E+00      0.2668562976E+00
          0                 4           2             9   10     1       0.2334163926E-02       9   10    1         0.3642043904E-01      0.8533628735E-01
          0                 5           1             9   10     1       0.7983196984E-03       9   10    1         0.1245740102E-01      0.2766109313E-01
          0                 6           1             9   10     1       0.2730089009E-03       9   10    1         0.4260518844E-02      0.9028353208E-02
          0                 7           1             9   10     1       0.9335583201E-04       9   10    1         0.1456975526E-02      0.2962947970E-02

    ------------------------------------------------
       NWT REQUIRED            7 OUTER ITERATIONS 
       AND A TOTAL OF         11 INNER ITERATIONS.
    ------------------------------------------------

 NO OUTPUT CONTROL FOR STRESS PERIOD   11   TIME STEP    7
 
 SOLVING FOR HEAD 
                                                   Max.-Head-Change                         Max.-Flux-Residual
  Residual-Control   Outer-Iter.   Inner-Iter.     Column Row Layer    Maximum-Head-Change  Column Row Layer    Maximum-Flux-Residual          L2-NORM 
          0                 1           2             9   10     1       0.6259843574E-01       5   10    1        -0.1533877544E+01      0.5207331543E+01
          0                 2           2             9   10     1       0.2062363822E-01       9   10    1         0.2926150465E+00      0.9088995084E+00
          0                 3           2             9   10     1       0.6792858015E-02       9   10    1         0.9639027574E-01      0.2495244475E+00
          0                 4           2             9   10     1       0.2236954742E-02       9   10    1         0.3174773430E-01      0.7849252548E-01
          0                 5           1             9   10     1       0.7365443578E-03       9   10    1         0.1045425550E-01      0.2500981461E-01
          0                 6           1             9   10     1       0.2424890681E-03       9   10    1         0.3442099716E-02      0.8007976905E-02
          0                 7           1             9   10     1       0.7982648005E-04       9   10    1         0.1133197250E-02      0.2573055158E-02

    ------------------------------------------------
       NWT REQUIRED            7 OUTER ITERATIONS 
       AND A TOTAL OF         11 INNER ITERATIONS.
    ------------------------------------------------

 NO OUTPUT CONTROL FOR STRESS PERIOD   11   TIME STEP    8
 
 SOLVING FOR HEAD 
                                                   Max.-Head-Change                         Max.-Flux-Residual
  Residual-Control   Outer-Iter.   Inner-Iter.     Column Row Layer    Maximum-Head-Change  Column Row Layer    Maximum-Flux-Residual          L2-NORM 
          0                 1           2             9   10     1       0.6138362133E-01       5   10    1        -0.1520509069E+01      0.5118153342E+01
          0                 2           2             9   10     1       0.2021638324E-01       9   10    1         0.2608225976E+00      0.8670413754E+00
          0                 3           2             9   10     1       0.6655982296E-02       9   10    1         0.8589076233E-01      0.2329642351E+00
          0                 4           2             9   10     1       0.2190878779E-02       9   10    1         0.2827714709E-01      0.7264845260E-01
          0                 5           1             9   10     1       0.7210185082E-03       9   10    1         0.9307105017E-02      0.2298347304E-01
          0                 6           1             9   10     1       0.2372543960E-03       9   10    1         0.3062863346E-02      0.7312402190E-02
          0                 7           1             9   10     1       0.7806103799E-04       9   10    1         0.1007817351E-02      0.2336218441E-02

    ------------------------------------------------
       NWT REQUIRED            7 OUTER ITERATIONS 
       AND A TOTAL OF         11 INNER ITERATIONS.
    ------------------------------------------------

 NO OUTPUT CONTROL FOR STRESS PERIOD   11   TIME STEP    9
 
 SOLVING FOR HEAD 
                                                   Max.-Head-Change                         Max.-Flux-Residual
  Residual-Control   Outer-Iter.   Inner-Iter.     Column Row Layer    Maximum-Head-Change  Column Row Layer    Maximum-Flux-Residual          L2-NORM 
          0                 1           2             9   10     1       0.6678784988E-01       5   10    1        -0.1506002904E+01      0.5033511393E+01
          0                 2           2             9   10     1       0.2197987093E-01       9   10    1         0.2579263934E+00      0.8285522159E+00
          0                 3           2             9   10     1       0.7230965556E-02       9   10    1         0.8488038860E-01      0.2172258692E+00
          0                 4           2             9   10     1       0.2378238951E-02       9   10    1         0.2792191821E-01      0.6697591487E-01
          0                 5           1             9    9     1       0.7821526431E-03       9   10    1         0.9182868708E-02      0.2099616657E-01
          0                 6           1             9    9     1       0.2580141481E-03       9    9    1         0.3022280879E-02      0.6628525039E-02
          0                 7           1             9    9     1       0.8510181442E-04       9    9    1         0.9969426922E-03      0.2104159445E-02

    ------------------------------------------------
       NWT REQUIRED            7 OUTER ITERATIONS 
       AND A TOTAL OF         11 INNER ITERATIONS.
    ------------------------------------------------

 OUTPUT CONTROL FOR STRESS PERIOD   11   TIME STEP   10
    PRINT BUDGET
    SAVE BUDGET

            WELLS   PERIOD   11   STEP  10
 WELL      1   LAYER   1   ROW     6   COL     4   RATE    -3.00000    
 WELL      2   LAYER   1   ROW     6   COL     5   RATE    -3.00000    
 WELL      3   LAYER   1   ROW     7   COL     4   RATE    -3.00000    
 WELL      4   LAYER   1   ROW     7   COL     5   RATE    -3.00000    
 WELL      5   LAYER   1   ROW     8   COL     4   RATE    -3.00000    
 WELL      6   LAYER   1   ROW     8   COL     5   RATE    -3.00000    
 WELL      7   LAYER   1   ROW     9   COL     4   RATE    -3.00000    
 WELL      8   LAYER   1   ROW     9   COL     5   RATE    -3.00000    
 WELL      9   LAYER   1   ROW    10   COL     4   RATE    -3.00000    
 WELL     10   LAYER   1   ROW    10   COL     5   RATE    -3.00000    

  HEAD DEP BOUNDS   PERIOD   11   STEP    10
 BOUNDARY      1   LAYER   1   ROW    13   COL     1   RATE   -0.284215    
 BOUNDARY      2   LAYER   1   ROW    14   COL     9   RATE    0.205897    



 STREAM LISTING     PERIOD     11   STEP       10

 LAYER ROW COL. STREAM  RCH.  FLOW INTO     FLOW TO   FLOW OUT OF   OVRLND.     DIRECT     STREAM       STREAM     STREAM     STREAM   STREAMBED  STREAMBED
                SEG.NO.  NO.  STRM. RCH.    AQUIFER    STRM. RCH.    RUNOFF     PRECIP       ET          HEAD       DEPTH      WIDTH   CONDCTNC.   GRADIENT

   1    1    1     1     1    2.5000E+01  1.1376E+00   2.3862E+01  0.000E+00  0.000E+00  0.000E+00  1.09422E+03  1.172E+00  1.295E+01  5.827E-01  6.507E-01
   1    2    2     1     2    2.3862E+01  2.4216E+00   2.1441E+01  0.000E+00  0.000E+00  0.000E+00  1.08920E+03  1.144E+00  1.258E+01  8.807E-01  9.165E-01
   1    3    3     1     3    2.1441E+01  2.9491E+00   1.8492E+01  0.000E+00  0.000E+00  0.000E+00  1.08352E+03  1.099E+00  1.199E+01  7.194E-01  1.366E+00
   1    3    4     1     4    1.8492E+01  2.4812E+00   1.6011E+01  0.000E+00  0.000E+00  0.000E+00  1.07846E+03  1.054E+00  1.115E+01  6.188E-01  1.337E+00
   1    4    5     2     1    6.0105E+00  2.6841E+00   3.3264E+00  0.000E+00  0.000E+00  0.000E+00  1.07238E+03  4.412E-01  1.200E+01  7.800E-01  1.147E+00
   1    5    6     2     2    3.3264E+00  1.9749E+00   1.3515E+00  0.000E+00  0.000E+00  0.000E+00  1.06680E+03  2.914E-01  1.200E+01  6.000E-01  1.097E+00
   1    6    6     2     3    1.3515E+00  1.3515E+00   0.0000E+00  0.000E+00  0.000E+00  0.000E+00  1.06184E+03  4.719E-02  1.200E+01  6.000E-01  1.016E+00
   1    7    6     2     4    0.0000E+00  0.0000E+00   0.0000E+00  0.000E+00  0.000E+00  0.000E+00  1.05708E+03  0.000E+00  1.200E+01  6.000E-01  1.000E+00
   1    8    6     2     5    0.0000E+00  0.0000E+00   0.0000E+00  0.000E+00  0.000E+00  0.000E+00  1.05236E+03  0.000E+00  1.200E+01  6.000E-01  1.000E+00
   1    3    5     3     1    1.0000E+01  1.7029E+00   8.2971E+00  0.000E+00  0.000E+00  0.000E+00  1.07555E+03  1.909E+00  9.636E+00  7.227E-01  1.178E+00
   1    3    6     3     2    8.2971E+00  1.2965E+00   7.0007E+00  0.000E+00  0.000E+00  0.000E+00  1.07264E+03  1.727E+00  8.909E+00  6.682E-01  9.702E-01
   1    3    7     3     3    7.0007E+00  7.7943E-01   6.2212E+00  0.000E+00  0.000E+00  0.000E+00  1.06987E+03  1.555E+00  8.218E+00  5.547E-01  7.025E-01
   1    4    8     3     4    6.2212E+00  1.4007E+00   4.8205E+00  0.000E+00  0.000E+00  0.000E+00  1.06682E+03  1.364E+00  7.455E+00  6.709E-01  1.044E+00
   1    5    8     3     5    4.8205E+00  1.4416E+00   3.3789E+00  0.000E+00  0.000E+00  0.000E+00  1.06362E+03  1.164E+00  6.655E+00  4.991E-01  1.444E+00
   1    6    8     3     6    3.3789E+00  5.5980E-01   2.8191E+00  0.000E+00  0.000E+00  0.000E+00  1.06158E+03  1.036E+00  6.145E+00  1.844E-01  1.518E+00
   1    5   10     4     1    1.0000E+01  9.0525E-01   9.0947E+00  0.000E+00  0.000E+00  0.000E+00  1.07835E+03  6.210E-01  1.000E+01  2.500E-01  1.207E+00
   1    5    9     4     2    9.0947E+00  1.7835E+00   7.3113E+00  0.000E+00  0.000E+00  0.000E+00  1.07148E+03  5.670E-01  1.000E+01  5.000E-01  1.189E+00
   1    6    8     4     3    7.3113E+00  1.2257E+00   6.0855E+00  0.000E+00  0.000E+00  0.000E+00  1.06368E+03  5.021E-01  1.000E+01  3.500E-01  1.167E+00
   1    6    8     5     1    8.9046E+00  2.3077E-01   8.6738E+00  0.000E+00  0.000E+00  0.000E+00  1.05864E+03  6.420E-01  1.400E+01  5.600E-01  1.374E-01
   1    7    7     5     2    8.6738E+00  1.2467E+00   7.4271E+00  0.000E+00  0.000E+00  0.000E+00  1.05412E+03  6.225E-01  1.328E+01  6.641E-01  6.258E-01
   1    8    7     5     3    7.4271E+00  8.9799E-01   6.5291E+00  0.000E+00  0.000E+00  0.000E+00  1.04984E+03  5.921E-01  1.219E+01  4.267E-01  7.015E-01
   1    8    6     5     4    6.5291E+00  8.5188E-01   5.6773E+00  0.000E+00  0.000E+00  0.000E+00  1.04682E+03  5.650E-01  1.125E+01  2.812E-01  1.010E+00
   1    9    6     6     1    5.6773E+00  1.7669E+00   3.9104E+00  0.000E+00  0.000E+00  0.000E+00  1.04318E+03  4.533E-01  1.200E+01  6.000E-01  9.816E-01
   1   10    7     6     2    3.9104E+00  1.0470E+00   2.8634E+00  0.000E+00  0.000E+00  0.000E+00  1.03855E+03  3.680E-01  1.200E+01  6.000E-01  5.816E-01
   1   11    7     6     3    2.8634E+00  6.9920E-01   2.1642E+00  0.000E+00  0.000E+00  0.000E+00  1.03394E+03  3.077E-01  1.200E+01  6.000E-01  3.884E-01
   1   12    7     6     4    2.1642E+00  3.6685E-01   1.7974E+00  0.000E+00  0.000E+00  0.000E+00  1.02936E+03  2.667E-01  1.200E+01  6.000E-01  2.038E-01
   1   13    7     6     5    1.7974E+00 -7.8266E-01   2.5800E+00  0.000E+00  0.000E+00  0.000E+00  1.02619E+03  2.832E-01  1.200E+01  2.400E-01 -1.087E+00
   1   14    9     7     1    1.5000E+02  1.5998E+00   1.4840E+02  0.000E+00  0.000E+00  0.000E+00  1.03987E+03  2.287E+00  5.529E+01  5.593E+00  9.535E-02
   1   13    8     7     2    1.4840E+02  1.5577E+00   1.4684E+02  0.000E+00  0.000E+00  0.000E+00  1.03478E+03  2.279E+00  5.525E+01  6.147E+00  8.446E-02
   1   13    7     7     3    1.4684E+02  1.3230E+00   1.4552E+02  0.000E+00  0.000E+00  0.000E+00  1.02969E+03  2.271E+00  5.522E+01  5.585E+00  7.896E-02
   1   13    6     8     1    1.4810E+02  1.2652E-01   1.4797E+02  0.000E+00  0.000E+00  0.000E+00  1.02468E+03  2.803E+00  4.064E+01  4.142E+00  1.018E-02
   1   13    5     8     2    1.4797E+02 -5.1115E-01   1.4848E+02  0.000E+00  0.000E+00  0.000E+00  1.01843E+03  2.804E+00  4.066E+01  4.144E+00 -4.112E-02
   1   13    4     8     3    1.4848E+02 -1.3791E+00   1.4986E+02  0.000E+00  0.000E+00  0.000E+00  1.01219E+03  2.811E+00  4.076E+01  4.154E+00 -1.107E-01
   1   13    3     8     4    1.4986E+02 -2.0576E+00   1.5192E+02  0.000E+00  0.000E+00  0.000E+00  1.00595E+03  2.823E+00  4.094E+01  4.171E+00 -1.644E-01
   1   13    2     8     5    1.5192E+02 -2.0829E+00   1.5400E+02  0.000E+00  0.000E+00  0.000E+00  9.99713E+02  2.838E+00  4.114E+01  4.193E+00 -1.656E-01
   1   13    1     8     6    1.5400E+02 -1.9034E+00   1.5591E+02  0.000E+00  0.000E+00  0.000E+00  9.94726E+02  2.851E+00  4.135E+01  2.528E+00 -2.510E-01



 UBDSV3 SAVING "           GW ET" ON UNIT  61 AT TIME STEP 10, STRESS PERIOD  11
 UBDSV3 SAVING "    UZF RECHARGE" ON UNIT  61 AT TIME STEP 10, STRESS PERIOD  11
 UBDSV3 SAVING " SURFACE LEAKAGE" ON UNIT  61 AT TIME STEP 10, STRESS PERIOD  11
 UBDSV3 SAVING "       HORT+DUNN" ON UNIT  61 AT TIME STEP 10, STRESS PERIOD  11
 UBDSV3 SAVING "  STORAGE CHANGE" ON UNIT  61 AT TIME STEP 10, STRESS PERIOD  11


UNSATURATED ZONE PACKAGE VOLUMETRIC BUDGET FOR  TIME STEP    10 STRESS PERIOD   11
  ------------------------------------------------------------------------------



     CUMULATIVE VOLUMES      L**3       RATES FOR THIS TIME STEP      L**3/T
     ------------------                 ------------------------

           IN:                                      IN:
           ---                                      ---
        INFILTRATION =  1502885005.9768          INFILTRATION =           8.4750

          OUT:                                     OUT:
          ----                                     ----
              UZF ET =       11615.6164                UZF ET =       0.0000E+00
        UZF RECHARGE =  1291047625.6062          UZF RECHARGE =          37.8552

            IN - OUT =   211825764.7543              IN - OUT =         -29.3802

          STORAGE:                                 STORAGE:
          --------                                 --------
      STORAGE CHANGE =   212862217.6252        STORAGE CHANGE =         -29.3518

 PERCENT DISCREPANCY IS DIFFERENCE BETWEEN IN-OUT MINUS CHANGE IN STORAGE
 DIVIDED BY THE AVERAGE OF IN AND OUT TIMES 100

 PERCENT DISCREPANCY =          -0.02     PERCENT DISCREPANCY =          -0.08






1
  VOLUMETRIC BUDGET FOR ENTIRE MODEL AT END OF TIME STEP   10, STRESS PERIOD  11
  ------------------------------------------------------------------------------

     CUMULATIVE VOLUMES      L**3       RATES FOR THIS TIME STEP      L**3/T
     ------------------                 ------------------------

           IN:                                      IN:
           ---                                      ---
             STORAGE     =   108182360.0000               STORAGE     =          15.3623
       CONSTANT HEAD     =           0.0000         CONSTANT HEAD     =           0.0000
               WELLS     =           0.0000                 WELLS     =           0.0000
     HEAD DEP BOUNDS     =     5703342.5000       HEAD DEP BOUNDS     =           0.2059
      STREAM LEAKAGE     =  1081994624.0000        STREAM LEAKAGE     =          37.8096
        UZF RECHARGE     =  1291048192.0000          UZF RECHARGE     =          37.8552
               GW ET     =           0.0000                 GW ET     =           0.0000
     SURFACE LEAKAGE     =           0.0000       SURFACE LEAKAGE     =           0.0000

                TOTAL IN =  2486928384.0000                  TOTAL IN =          91.2330

          OUT:                                     OUT:
          ----                                     ----
             STORAGE     =  1161634432.0000               STORAGE     =          27.0419
       CONSTANT HEAD     =           0.0000         CONSTANT HEAD     =           0.0000
               WELLS     =   354906944.0000                 WELLS     =          30.0000
     HEAD DEP BOUNDS     =     7835375.5000       HEAD DEP BOUNDS     =           0.2842
      STREAM LEAKAGE     =   231926416.0000        STREAM LEAKAGE     =           8.7168
        UZF RECHARGE     =           0.0000          UZF RECHARGE     =           0.0000
               GW ET     =   662975936.0000                 GW ET     =          25.1874
     SURFACE LEAKAGE     =    67618264.0000       SURFACE LEAKAGE     =           0.0000

               TOTAL OUT =  2486897408.0000                 TOTAL OUT =          91.2303

                IN - OUT =       30976.0000                  IN - OUT =       2.6855E-03

     PERCENT DISCREPANCY =           0.00         PERCENT DISCREPANCY =           0.00






         TIME SUMMARY AT END OF TIME STEP   10 IN STRESS PERIOD   11
                    SECONDS     MINUTES      HOURS       DAYS        YEARS
                    -----------------------------------------------------------
   TIME STEP LENGTH 1.95033E+05  3250.6      54.176      2.2573     6.18023E-03
 STRESS PERIOD TIME 1.31823E+06  21971.      366.18      15.257     4.17723E-02
         TOTAL TIME 2.75982E+07 4.59970E+05  7666.2      319.42     0.87454    
1
 
 SOLVING FOR HEAD 
                                                   Max.-Head-Change                         Max.-Flux-Residual
  Residual-Control   Outer-Iter.   Inner-Iter.     Column Row Layer    Maximum-Head-Change  Column Row Layer    Maximum-Flux-Residual          L2-NORM 
          0                 1           2             9   10     1       0.7258628297E-01       5   10    1        -0.1490288739E+01      0.4957171341E+01
          0                 2           2             9   10     1       0.2386864961E-01       9   10    1         0.2547772101E+00      0.7957758594E+00
          0                 3           2             9   10     1       0.7845644175E-02       9   10    1         0.8377974746E-01      0.2049678714E+00
          0                 4           2             9    9     1       0.2584762942E-02       9    9    1         0.2753828562E-01      0.6285542398E-01
          0                 5           1             9    9     1       0.8519292855E-03       9    9    1         0.9077966290E-02      0.1963062297E-01
          0                 6           1             9    9     1       0.2807320553E-03       9    9    1         0.2991924479E-02      0.6179591487E-02
          0                 7           1             9    9     1       0.9249173012E-04       9    9    1         0.9858635032E-03      0.1957650902E-02

    ------------------------------------------------
       NWT REQUIRED            7 OUTER ITERATIONS 
       AND A TOTAL OF         11 INNER ITERATIONS.
    ------------------------------------------------

 NO OUTPUT CONTROL FOR STRESS PERIOD   11   TIME STEP   11
 
 SOLVING FOR HEAD 
                                                   Max.-Head-Change                         Max.-Flux-Residual
  Residual-Control   Outer-Iter.   Inner-Iter.     Column Row Layer    Maximum-Head-Change  Column Row Layer    Maximum-Flux-Residual          L2-NORM 
          0                 1           2             9   10     1       0.7829317308E-01       5   10    1        -0.1473286130E+01      0.4887422667E+01
          0                 2           2             9   10     1       0.2570122565E-01       9   10    1         0.2497213223E+00      0.7614471254E+00
          0                 3           2             9   10     1       0.8432300575E-02       9   10    1         0.8197849640E-01      0.1884276878E+00
          0                 4           2             9   10     1       0.2765434979E-02       9   10    1         0.2689225113E-01      0.5629451717E-01
          0                 5           1             9   10     1       0.9066588974E-03       9   10    1         0.8818781571E-02      0.1716512076E-01
          0                 6           1             9   10     1       0.2971768424E-03       9   10    1         0.2891072379E-02      0.5277306260E-02
          0                 7           1             9   10     1       0.9738579572E-04       9   10    1         0.9475582786E-03      0.1632894786E-02

    ------------------------------------------------
       NWT REQUIRED            7 OUTER ITERATIONS 
       AND A TOTAL OF         11 INNER ITERATIONS.
    ------------------------------------------------

 NO OUTPUT CONTROL FOR STRESS PERIOD   11   TIME STEP   12
 
 SOLVING FOR HEAD 
                                                   Max.-Head-Change                         Max.-Flux-Residual
  Residual-Control   Outer-Iter.   Inner-Iter.     Column Row Layer    Maximum-Head-Change  Column Row Layer    Maximum-Flux-Residual          L2-NORM 
          0                 1           2             5   10     1      -0.8197328448E-01       5   10    1        -0.1454922434E+01      0.4792675558E+01
          0                 2           2             9    9     1       0.2307049814E-01       9    9    1         0.2032414818E+00      0.7199161548E+00
          0                 3           2             9    9     1       0.7254058732E-02       9    9    1         0.6389991752E-01      0.1721752366E+00
          0                 4           2             9    9     1       0.2280019408E-02       9    9    1         0.2009263722E-01      0.5063798981E-01
          0                 5           1             9    9     1       0.7164171689E-03       9    9    1         0.6314482921E-02      0.1519133375E-01
          0                 6           1             9    9     1       0.2250555553E-03       9    9    1         0.1984001508E-02      0.4583664537E-02
          0                 7           1             9    9     1       0.7068510700E-04       9    9    1         0.6232182815E-03      0.1388393530E-02

    ------------------------------------------------
       NWT REQUIRED            7 OUTER ITERATIONS 
       AND A TOTAL OF         11 INNER ITERATIONS.
    ------------------------------------------------

 NO OUTPUT CONTROL FOR STRESS PERIOD   11   TIME STEP   13
 
 SOLVING FOR HEAD 
                                                   Max.-Head-Change                         Max.-Flux-Residual
  Residual-Control   Outer-Iter.   Inner-Iter.     Column Row Layer    Maximum-Head-Change  Column Row Layer    Maximum-Flux-Residual          L2-NORM 
          0                 1           2             5   10     1      -0.8883327515E-01       5   10    1        -0.1435116411E+01      0.4729473749E+01
          0                 2           2             9    9     1       0.2514382626E-01       9    9    1         0.2014916514E+00      0.7038580256E+00
          0                 3           2             9    9     1       0.7899002907E-02       9    9    1         0.6329915373E-01      0.1669691508E+00
          0                 4           2             9    9     1       0.2480483628E-02       9    9    1         0.1988566616E-01      0.4904414667E-01
          0                 5           1             9    9     1       0.7786915289E-03       9    9    1         0.6243785450E-02      0.1470691878E-01
          0                 6           1             9    9     1       0.2443927655E-03       9    9    1         0.1959982209E-02      0.4436180205E-02
          0                 7           1             9    9     1       0.7668746415E-04       9    9    1         0.6151049006E-03      0.1343424582E-02

    ------------------------------------------------
       NWT REQUIRED            7 OUTER ITERATIONS 
       AND A TOTAL OF         11 INNER ITERATIONS.
    ------------------------------------------------

 NO OUTPUT CONTROL FOR STRESS PERIOD   11   TIME STEP   14
 
 SOLVING FOR HEAD 
                                                   Max.-Head-Change                         Max.-Flux-Residual
  Residual-Control   Outer-Iter.   Inner-Iter.     Column Row Layer    Maximum-Head-Change  Column Row Layer    Maximum-Flux-Residual          L2-NORM 
          0                 1           2             5   10     1      -0.9614023497E-01       5   10    1        -0.1413802483E+01      0.4651560655E+01
          0                 2           2             9    9     1       0.2737816601E-01       9    9    1         0.1995695988E+00      0.6791682946E+00
          0                 3           2             9    9     1       0.8593734102E-02       9    9    1         0.6264637686E-01      0.1582161868E+00
          0                 4           2             9    9     1       0.2696282844E-02       9    9    1         0.1966379912E-01      0.4628723514E-01
          0                 5           1             9    9     1       0.8456697459E-03       9    9    1         0.6168671165E-02      0.1385672545E-01
          0                 6           1             9    9     1       0.2651669000E-03       9    9    1         0.1934634030E-02      0.4176333298E-02
          0                 7           1             9    9     1       0.8312704142E-04       9    9    1         0.6065814404E-03      0.1264502103E-02

    ------------------------------------------------
       NWT REQUIRED            7 OUTER ITERATIONS 
       AND A TOTAL OF         11 INNER ITERATIONS.
    ------------------------------------------------

 OUTPUT CONTROL FOR STRESS PERIOD   11   TIME STEP   15
    PRINT BUDGET
    PRINT HEAD FOR ALL LAYERS
    SAVE HEAD FOR ALL LAYERS
    SAVE BUDGET

            WELLS   PERIOD   11   STEP  15
 WELL      1   LAYER   1   ROW     6   COL     4   RATE    -3.00000    
 WELL      2   LAYER   1   ROW     6   COL     5   RATE    -3.00000    
 WELL      3   LAYER   1   ROW     7   COL     4   RATE    -3.00000    
 WELL      4   LAYER   1   ROW     7   COL     5   RATE    -3.00000    
 WELL      5   LAYER   1   ROW     8   COL     4   RATE    -3.00000    
 WELL      6   LAYER   1   ROW     8   COL     5   RATE    -3.00000    
 WELL      7   LAYER   1   ROW     9   COL     4   RATE    -3.00000    
 WELL      8   LAYER   1   ROW     9   COL     5   RATE    -3.00000    
 WELL      9   LAYER   1   ROW    10   COL     4   RATE    -3.00000    
 WELL     10   LAYER   1   ROW    10   COL     5   RATE    -3.00000    

  HEAD DEP BOUNDS   PERIOD   11   STEP    15
 BOUNDARY      1   LAYER   1   ROW    13   COL     1   RATE   -0.284091    
 BOUNDARY      2   LAYER   1   ROW    14   COL     9   RATE    0.205939    



 STREAM LISTING     PERIOD     11   STEP       15

 LAYER ROW COL. STREAM  RCH.  FLOW INTO     FLOW TO   FLOW OUT OF   OVRLND.     DIRECT     STREAM       STREAM     STREAM     STREAM   STREAMBED  STREAMBED
                SEG.NO.  NO.  STRM. RCH.    AQUIFER    STRM. RCH.    RUNOFF     PRECIP       ET          HEAD       DEPTH      WIDTH   CONDCTNC.   GRADIENT

   1    1    1     1     1    2.5000E+01  1.1316E+00   2.3868E+01  0.000E+00  0.000E+00  0.000E+00  1.09422E+03  1.172E+00  1.295E+01  5.827E-01  6.473E-01
   1    2    2     1     2    2.3868E+01  2.3995E+00   2.1469E+01  0.000E+00  0.000E+00  0.000E+00  1.08920E+03  1.144E+00  1.259E+01  8.810E-01  9.079E-01
   1    3    3     1     3    2.1469E+01  2.9514E+00   1.8517E+01  0.000E+00  0.000E+00  0.000E+00  1.08352E+03  1.100E+00  1.200E+01  7.199E-01  1.367E+00
   1    3    4     1     4    1.8517E+01  2.4642E+00   1.6053E+01  0.000E+00  0.000E+00  0.000E+00  1.07846E+03  1.055E+00  1.116E+01  6.194E-01  1.326E+00
   1    4    5     2     1    6.0533E+00  2.6860E+00   3.3673E+00  0.000E+00  0.000E+00  0.000E+00  1.07238E+03  4.436E-01  1.200E+01  7.800E-01  1.148E+00
   1    5    6     2     2    3.3673E+00  1.9767E+00   1.3906E+00  0.000E+00  0.000E+00  0.000E+00  1.06680E+03  2.944E-01  1.200E+01  6.000E-01  1.098E+00
   1    6    6     2     3    1.3906E+00  1.3906E+00   0.0000E+00  0.000E+00  0.000E+00  0.000E+00  1.06184E+03  4.800E-02  1.200E+01  6.000E-01  1.016E+00
   1    7    6     2     4    0.0000E+00  0.0000E+00   0.0000E+00  0.000E+00  0.000E+00  0.000E+00  1.05708E+03  0.000E+00  1.200E+01  6.000E-01  1.000E+00
   1    8    6     2     5    0.0000E+00  0.0000E+00   0.0000E+00  0.000E+00  0.000E+00  0.000E+00  1.05236E+03  0.000E+00  1.200E+01  6.000E-01  1.000E+00
   1    3    5     3     1    1.0000E+01  1.7317E+00   8.2683E+00  0.000E+00  0.000E+00  0.000E+00  1.07555E+03  1.909E+00  9.636E+00  7.227E-01  1.198E+00
   1    3    6     3     2    8.2683E+00  1.3280E+00   6.9404E+00  0.000E+00  0.000E+00  0.000E+00  1.07264E+03  1.727E+00  8.909E+00  6.682E-01  9.937E-01
   1    3    7     3     3    6.9404E+00  8.0135E-01   6.1390E+00  0.000E+00  0.000E+00  0.000E+00  1.06987E+03  1.555E+00  8.218E+00  5.547E-01  7.223E-01
   1    4    8     3     4    6.1390E+00  1.3986E+00   4.7404E+00  0.000E+00  0.000E+00  0.000E+00  1.06682E+03  1.364E+00  7.455E+00  6.709E-01  1.042E+00
   1    5    8     3     5    4.7404E+00  1.4399E+00   3.3005E+00  0.000E+00  0.000E+00  0.000E+00  1.06362E+03  1.164E+00  6.655E+00  4.991E-01  1.443E+00
   1    6    8     3     6    3.3005E+00  5.5980E-01   2.7407E+00  0.000E+00  0.000E+00  0.000E+00  1.06158E+03  1.036E+00  6.145E+00  1.844E-01  1.518E+00
   1    5   10     4     1    1.0000E+01  9.0525E-01   9.0947E+00  0.000E+00  0.000E+00  0.000E+00  1.07835E+03  6.210E-01  1.000E+01  2.500E-01  1.207E+00
   1    5    9     4     2    9.0947E+00  1.7835E+00   7.3113E+00  0.000E+00  0.000E+00  0.000E+00  1.07148E+03  5.670E-01  1.000E+01  5.000E-01  1.189E+00
   1    6    8     4     3    7.3113E+00  1.2257E+00   6.0855E+00  0.000E+00  0.000E+00  0.000E+00  1.06368E+03  5.021E-01  1.000E+01  3.500E-01  1.167E+00
   1    6    8     5     1    8.8263E+00  2.2749E-01   8.5988E+00  0.000E+00  0.000E+00  0.000E+00  1.05864E+03  6.400E-01  1.393E+01  5.571E-01  1.361E-01
   1    7    7     5     2    8.5988E+00  1.2308E+00   7.3680E+00  0.000E+00  0.000E+00  0.000E+00  1.05412E+03  6.207E-01  1.322E+01  6.608E-01  6.209E-01
   1    8    7     5     3    7.3680E+00  8.8404E-01   6.4839E+00  0.000E+00  0.000E+00  0.000E+00  1.04984E+03  5.906E-01  1.214E+01  4.248E-01  6.938E-01
   1    8    6     5     4    6.4839E+00  8.3559E-01   5.6483E+00  0.000E+00  0.000E+00  0.000E+00  1.04681E+03  5.638E-01  1.121E+01  2.802E-01  9.940E-01
   1    9    6     6     1    5.6483E+00  1.7508E+00   3.8975E+00  0.000E+00  0.000E+00  0.000E+00  1.04318E+03  4.521E-01  1.200E+01  6.000E-01  9.727E-01
   1   10    7     6     2    3.8975E+00  1.0274E+00   2.8702E+00  0.000E+00  0.000E+00  0.000E+00  1.03855E+03  3.678E-01  1.200E+01  6.000E-01  5.708E-01
   1   11    7     6     3    2.8702E+00  6.8318E-01   2.1870E+00  0.000E+00  0.000E+00  0.000E+00  1.03395E+03  3.088E-01  1.200E+01  6.000E-01  3.795E-01
   1   12    7     6     4    2.1870E+00  3.5731E-01   1.8297E+00  0.000E+00  0.000E+00  0.000E+00  1.02936E+03  2.690E-01  1.200E+01  6.000E-01  1.985E-01
   1   13    7     6     5    1.8297E+00 -7.8179E-01   2.6115E+00  0.000E+00  0.000E+00  0.000E+00  1.02619E+03  2.857E-01  1.200E+01  2.400E-01 -1.086E+00
   1   14    9     7     1    1.5000E+02  1.6058E+00   1.4839E+02  0.000E+00  0.000E+00  0.000E+00  1.03987E+03  2.287E+00  5.529E+01  5.593E+00  9.571E-02
   1   13    8     7     2    1.4839E+02  1.5302E+00   1.4686E+02  0.000E+00  0.000E+00  0.000E+00  1.03478E+03  2.279E+00  5.525E+01  6.147E+00  8.297E-02
   1   13    7     7     3    1.4686E+02  1.3300E+00   1.4553E+02  0.000E+00  0.000E+00  0.000E+00  1.02969E+03  2.271E+00  5.522E+01  5.585E+00  7.938E-02
   1   13    6     8     1    1.4815E+02  1.3522E-01   1.4801E+02  0.000E+00  0.000E+00  0.000E+00  1.02468E+03  2.803E+00  4.065E+01  4.142E+00  1.088E-02
   1   13    5     8     2    1.4801E+02 -5.1731E-01   1.4853E+02  0.000E+00  0.000E+00  0.000E+00  1.01843E+03  2.805E+00  4.067E+01  4.144E+00 -4.161E-02
   1   13    4     8     3    1.4853E+02 -1.3794E+00   1.4991E+02  0.000E+00  0.000E+00  0.000E+00  1.01219E+03  2.811E+00  4.076E+01  4.154E+00 -1.107E-01
   1   13    3     8     4    1.4991E+02 -2.0566E+00   1.5196E+02  0.000E+00  0.000E+00  0.000E+00  1.00595E+03  2.823E+00  4.094E+01  4.172E+00 -1.643E-01
   1   13    2     8     5    1.5196E+02 -2.1057E+00   1.5407E+02  0.000E+00  0.000E+00  0.000E+00  9.99713E+02  2.838E+00  4.115E+01  4.193E+00 -1.674E-01
   1   13    1     8     6    1.5407E+02 -1.8944E+00   1.5596E+02  0.000E+00  0.000E+00  0.000E+00  9.94727E+02  2.852E+00  4.135E+01  2.528E+00 -2.498E-01



 UBDSV3 SAVING "           GW ET" ON UNIT  61 AT TIME STEP 15, STRESS PERIOD  11
 UBDSV3 SAVING "    UZF RECHARGE" ON UNIT  61 AT TIME STEP 15, STRESS PERIOD  11
 UBDSV3 SAVING " SURFACE LEAKAGE" ON UNIT  61 AT TIME STEP 15, STRESS PERIOD  11
 UBDSV3 SAVING "       HORT+DUNN" ON UNIT  61 AT TIME STEP 15, STRESS PERIOD  11
 UBDSV3 SAVING "  STORAGE CHANGE" ON UNIT  61 AT TIME STEP 15, STRESS PERIOD  11


UNSATURATED ZONE PACKAGE VOLUMETRIC BUDGET FOR  TIME STEP    15 STRESS PERIOD   11
  ------------------------------------------------------------------------------



     CUMULATIVE VOLUMES      L**3       RATES FOR THIS TIME STEP      L**3/T
     ------------------                 ------------------------

           IN:                                      IN:
           ---                                      ---
        INFILTRATION =  1513985275.7600          INFILTRATION =           8.4750

          OUT:                                     OUT:
          ----                                     ----
              UZF ET =       11615.6164                UZF ET =       0.0000E+00
        UZF RECHARGE =  1336669617.7439          UZF RECHARGE =          32.8536

            IN - OUT =   177304042.3998              IN - OUT =         -24.3786

          STORAGE:                                 STORAGE:
          --------                                 --------
      STORAGE CHANGE =   178366908.3954        STORAGE CHANGE =         -24.3181

 PERCENT DISCREPANCY IS DIFFERENCE BETWEEN IN-OUT MINUS CHANGE IN STORAGE
 DIVIDED BY THE AVERAGE OF IN AND OUT TIMES 100

 PERCENT DISCREPANCY =          -0.02     PERCENT DISCREPANCY =          -0.18






1
              HEAD IN LAYER   1 AT END OF TIME STEP  15 IN STRESS PERIOD   11
  ---------------------------------------------------------------------------

           1       2       3       4       5       6       7       8       9      10
 ...................................................................................
   1  1092.28 1087.86 6999.00 6999.00 6999.00 6999.00 6999.00 6999.00 6999.00 6999.00
   2  1089.56 1086.48 1078.66 6999.00 6999.00 1080.64 1079.63 1076.40 6999.00 6999.00
   3  6999.00 1078.90 1079.33 1074.48 1073.15 1070.65 1068.43 1071.41 6999.00 6999.00
   4  1076.49 1072.04 1065.67 1063.89 1066.41 1061.70 1060.42 1064.73 1062.45 6999.00
   5  1073.20 1065.61 1056.73 1053.89 1056.07 1060.69 1057.42 1060.73 1064.45 1066.02
   6  1069.29 1060.54 1054.79 1040.66 1043.47 1053.81 1054.29 1058.23 1058.29 1068.03
   7  1066.42 1055.51 1049.64 1032.48 1035.78 1046.33 1052.26 1053.12 1054.00 6999.00
   8  6999.00 1049.25 1044.84 1028.54 1031.65 1043.83 1047.76 1049.42 1054.73 6999.00
   9  6999.00 1043.13 1039.93 1024.70 1028.15 1040.26 1040.53 1043.65 1050.60 6999.00
  10  6999.00 1036.70 1034.97 1022.36 1024.55 1032.71 1036.84 1039.57 1048.21 1058.75
  11  6999.00 1024.68 1025.12 1024.53 1026.14 1029.29 1032.81 1035.91 1043.25 6999.00
  12  1006.94 1014.20 1016.09 1019.68 1022.52 1025.81 1028.76 1031.23 1037.17 6999.00
  13   995.48 1000.22 1006.44 1012.52 1018.55 1024.65 1029.45 1034.53 1036.07 6999.00
  14  6999.00 1015.59 1023.19 1028.08 1031.74 1034.47 1035.62 1036.34 1039.58 6999.00
  15  6999.00 6999.00 1038.25 1039.34 1043.42 1044.42 6999.00 6999.00 6999.00 6999.00
1
              HEAD IN LAYER   2 AT END OF TIME STEP  15 IN STRESS PERIOD   11
  ---------------------------------------------------------------------------

           1       2       3       4       5       6       7       8       9      10
 ...................................................................................
   1  1091.23 1087.42 6999.00 6999.00 6999.00 6999.00 6999.00 6999.00 6999.00 6999.00
   2  1089.15 1081.67 1076.31 6999.00 6999.00 1078.96 1078.12 1075.86 6999.00 6999.00
   3  6999.00 1075.62 1069.44 1065.55 1064.65 1065.81 1066.94 1069.96 6999.00 6999.00
   4  1074.92 1070.39 1064.09 1060.19 1058.64 1058.12 1059.43 1062.62 1062.19 6999.00
   5  1071.64 1064.25 1057.89 1054.99 1054.51 1054.69 1054.93 1056.68 1060.49 1064.62
   6  1067.89 1059.47 1053.20 1050.07 1050.05 1051.08 1052.24 1054.05 1057.74 1067.03
   7  1065.00 1054.55 1048.40 1045.38 1045.72 1047.10 1048.90 1051.38 1054.22 6999.00
   8  6999.00 1048.33 1043.64 1040.99 1041.50 1042.98 1044.74 1048.85 1053.87 6999.00
   9  6999.00 1041.99 1038.57 1036.58 1037.30 1038.83 1040.25 1043.51 1050.05 6999.00
  10  6999.00 1035.26 1033.36 1032.58 1033.60 1035.13 1036.42 1039.48 1047.39 1057.53
  11  6999.00 1025.44 1026.49 1028.86 1030.46 1032.14 1033.61 1036.03 1042.25 6999.00
  12  1007.31 1015.61 1020.89 1024.86 1027.56 1029.79 1031.40 1032.85 1037.12 6999.00
  13  1000.55 1008.43 1016.91 1022.38 1025.96 1028.80 1031.12 1033.46 1036.00 6999.00
  14  6999.00 1015.95 1022.59 1027.36 1030.95 1033.49 1034.41 1035.75 1037.40 6999.00
  15  6999.00 6999.00 1037.16 1038.59 1042.27 1043.48 6999.00 6999.00 6999.00 6999.00

 HEAD WILL BE SAVED ON UNIT   58 AT END OF TIME STEP   15, STRESS PERIOD   11
1
  VOLUMETRIC BUDGET FOR ENTIRE MODEL AT END OF TIME STEP   15, STRESS PERIOD  11
  ------------------------------------------------------------------------------

     CUMULATIVE VOLUMES      L**3       RATES FOR THIS TIME STEP      L**3/T
     ------------------                 ------------------------

           IN:                                      IN:
           ---                                      ---
             STORAGE     =   127719888.0000               STORAGE     =          14.9059
       CONSTANT HEAD     =           0.0000         CONSTANT HEAD     =           0.0000
               WELLS     =           0.0000                 WELLS     =           0.0000
     HEAD DEP BOUNDS     =     5973044.5000       HEAD DEP BOUNDS     =           0.2059
      STREAM LEAKAGE     =  1131472768.0000        STREAM LEAKAGE     =          37.7715
        UZF RECHARGE     =  1336670080.0000          UZF RECHARGE     =          32.8536
               GW ET     =           0.0000                 GW ET     =           0.0000
     SURFACE LEAKAGE     =           0.0000       SURFACE LEAKAGE     =           0.0000

                TOTAL IN =  2601835776.0000                  TOTAL IN =          85.7370

          OUT:                                     OUT:
          ----                                     ----
             STORAGE     =  1192392832.0000               STORAGE     =          21.4425
       CONSTANT HEAD     =           0.0000         CONSTANT HEAD     =           0.0000
               WELLS     =   394199936.0000                 WELLS     =          30.0000
     HEAD DEP BOUNDS     =     8207536.5000       HEAD DEP BOUNDS     =           0.2841
      STREAM LEAKAGE     =   243348176.0000        STREAM LEAKAGE     =           8.7352
        UZF RECHARGE     =           0.0000          UZF RECHARGE     =           0.0000
               GW ET     =   696035520.0000                 GW ET     =          25.2737
     SURFACE LEAKAGE     =    67618264.0000       SURFACE LEAKAGE     =           0.0000

               TOTAL OUT =  2601802240.0000                 TOTAL OUT =          85.7355

                IN - OUT =       33536.0000                  IN - OUT =       1.4801E-03

     PERCENT DISCREPANCY =           0.00         PERCENT DISCREPANCY =           0.00






         TIME SUMMARY AT END OF TIME STEP   15 IN STRESS PERIOD   11
                    SECONDS     MINUTES      HOURS       DAYS        YEARS
                    -----------------------------------------------------------
   TIME STEP LENGTH 3.14103E+05  5235.0      87.251      3.6354     9.95332E-03
 STRESS PERIOD TIME 2.62800E+06  43800.      730.00      30.417     8.32763E-02
         TOTAL TIME 2.89080E+07 4.81800E+05  8030.0      334.58     0.91604    
1
1
                            STRESS PERIOD NO.   12, LENGTH =   2628000.    
                            -----------------------------------------------

                              NUMBER OF TIME STEPS =    15

                               MULTIPLIER FOR DELT =     1.100

                            INITIAL TIME STEP SIZE =   82713.07    

      0 WELLS

 REUSING NON-PARAMETER GHB CELLS FROM LAST STRESS PERIOD

      2 GHB CELLS

 REUSING STREAM SEGMENT DATA FROM LAST STRESS PERIOD



            AREAL INFILTRATION RATE
 READING ON UNIT   19 WITH FORMAT: (10F4.0)            

            1           2           3           4           5           6           7           8           9          10
 ........................................................................................................................
   1   1.0000E-09  2.0000E-09   0.000       0.000       0.000       0.000       0.000       0.000       0.000       0.000    
   2   2.0000E-09  1.0000E-09  2.0000E-09   0.000       0.000      8.0000E-09  8.0000E-09  5.0000E-09   0.000       0.000    
   3    0.000      5.0000E-09  1.0000E-09  1.0000E-09  8.0000E-09  8.0000E-09  5.0000E-09  5.0000E-09   0.000       0.000    
   4   8.0000E-09  5.0000E-09  1.0000E-09  1.0000E-09  1.0000E-09  1.0000E-09  1.0000E-09  1.0000E-09  2.0000E-09   0.000    
   5   8.0000E-09  5.0000E-09  1.0000E-09  1.0000E-09  1.0000E-09  1.0000E-09  1.0000E-09  1.0000E-09  1.0000E-09  1.0000E-09
   6   8.0000E-09  5.0000E-09  5.0000E-09  2.0000E-09  2.0000E-09  1.0000E-09  1.0000E-09  1.0000E-09  1.0000E-09  5.0000E-09
   7   8.0000E-09  5.0000E-09  5.0000E-09  2.0000E-09  2.0000E-09  1.0000E-09  1.0000E-09  2.0000E-09  2.0000E-09   0.000    
   8    0.000      5.0000E-09  5.0000E-09  2.0000E-09  2.0000E-09  1.0000E-09  1.0000E-09  2.0000E-09  5.0000E-09   0.000    
   9    0.000      5.0000E-09  5.0000E-09  2.0000E-09  2.0000E-09  1.0000E-09  1.0000E-09  2.0000E-09  5.0000E-09   0.000    
  10    0.000      5.0000E-09  5.0000E-09  2.0000E-09  2.0000E-09  1.0000E-09  1.0000E-09  2.0000E-09  5.0000E-09  8.0000E-09
  11    0.000      1.0000E-09  1.0000E-09  1.0000E-09  1.0000E-09  1.0000E-09  1.0000E-09  2.0000E-09  5.0000E-09   0.000    
  12   1.0000E-09  1.0000E-09  1.0000E-09  1.0000E-09  1.0000E-09  1.0000E-09  1.0000E-09  1.0000E-09  2.0000E-09   0.000    
  13   1.0000E-09  1.0000E-09  2.0000E-09  2.0000E-09  2.0000E-09  2.0000E-09  2.0000E-09  1.0000E-09  1.0000E-09   0.000    
  14    0.000      2.0000E-09  5.0000E-09  5.0000E-09  5.0000E-09  5.0000E-09  5.0000E-09  2.0000E-09  1.0000E-09   0.000    
  15    0.000       0.000      8.0000E-09  8.0000E-09  8.0000E-09  8.0000E-09   0.000       0.000       0.000       0.000    

USING ET RATE FROM PREVIOUS STRESS PERIOD. CURRENT PERIOD IS:      12

 USING ET EXTINCTION DEPTH FROM PREVIOUS STRESS PERIOD. CURRENT PERIOD IS:      12

 USING EXTINCTION WATER CONTENT FROM PREVIOUS STRESS PERIOD. CURRENT PERIOD IS:      12
 
 SOLVING FOR HEAD 
                                                   Max.-Head-Change                         Max.-Flux-Residual
  Residual-Control   Outer-Iter.   Inner-Iter.     Column Row Layer    Maximum-Head-Change  Column Row Layer    Maximum-Flux-Residual          L2-NORM 
          0                 1           2             4    7     1       0.3441078275E-01       4    7    1         0.1894028719E+01      0.5920041744E+01
          0                 2           2             9    9     1       0.7213796179E-02       9    9    1         0.1987770063E+00      0.7435111108E+00
          0                 3           2             9    9     1       0.2278996200E-02       9    9    1         0.6277487765E-01      0.1446945651E+00
          0                 4           1             9    9     1       0.7199093903E-03       9    9    1         0.1983427930E-01      0.4138638951E-01
          0                 5           1             9    9     1       0.2273930721E-03       9    9    1         0.6264987806E-02      0.1234503305E-01
          0                 6           1             9    9     1       0.7182058312E-04       9    9    1         0.1978874450E-02      0.3721744680E-02

    ------------------------------------------------
       NWT REQUIRED            6 OUTER ITERATIONS 
       AND A TOTAL OF          9 INNER ITERATIONS.
    ------------------------------------------------

 NO OUTPUT CONTROL FOR STRESS PERIOD   12   TIME STEP    1
 
 SOLVING FOR HEAD 
                                                   Max.-Head-Change                         Max.-Flux-Residual
  Residual-Control   Outer-Iter.   Inner-Iter.     Column Row Layer    Maximum-Head-Change  Column Row Layer    Maximum-Flux-Residual          L2-NORM 
          0                 1           2             4    7     1       0.3779516946E-01       4    7    1         0.1891155202E+01      0.5896183494E+01
          0                 2           2             9   10     1       0.7655297147E-02       9   10    1         0.1920049473E+00      0.7306732701E+00
          0                 3           2             9   10     1       0.2413702913E-02       9   10    1         0.6053635527E-01      0.1376762980E+00
          0                 4           1             9   10     1       0.7609183065E-03       9   10    1         0.1908748951E-01      0.3867845386E-01
          0                 5           1             9   10     1       0.2398494384E-03       9   10    1         0.6016955355E-02      0.1135599690E-01
          0                 6           1             9   10     1       0.7559544107E-04       9   10    1         0.1896570578E-02      0.3368195152E-02

    ------------------------------------------------
       NWT REQUIRED            6 OUTER ITERATIONS 
       AND A TOTAL OF          9 INNER ITERATIONS.
    ------------------------------------------------

 NO OUTPUT CONTROL FOR STRESS PERIOD   12   TIME STEP    2
 
 SOLVING FOR HEAD 
                                                   Max.-Head-Change                         Max.-Flux-Residual
  Residual-Control   Outer-Iter.   Inner-Iter.     Column Row Layer    Maximum-Head-Change  Column Row Layer    Maximum-Flux-Residual          L2-NORM 
          0                 1           2             4    7     1       0.4150892247E-01       4    7    1         0.1888329248E+01      0.5863697647E+01
          0                 2           2             9   10     1       0.7051728364E-02       4    7    1        -0.1888339650E+00      0.7115038533E+00
          0                 3           2             9   10     1       0.2099277677E-02       9   10    1         0.4786810967E-01      0.1272583851E+00
          0                 4           1             9   10     1       0.6248725630E-03       9   10    1         0.1425079036E-01      0.3479325653E-01
          0                 5           1             9   10     1       0.1859830465E-03       9   10    1         0.4241647163E-02      0.9982270692E-02
          0                 6           1             9   10     1       0.5535088897E-04       9   10    1         0.1262444033E-02      0.2890185784E-02

    ------------------------------------------------
       NWT REQUIRED            6 OUTER ITERATIONS 
       AND A TOTAL OF          9 INNER ITERATIONS.
    ------------------------------------------------

 NO OUTPUT CONTROL FOR STRESS PERIOD   12   TIME STEP    3
 
 SOLVING FOR HEAD 
                                                   Max.-Head-Change                         Max.-Flux-Residual
  Residual-Control   Outer-Iter.   Inner-Iter.     Column Row Layer    Maximum-Head-Change  Column Row Layer    Maximum-Flux-Residual          L2-NORM 
          0                 1           2             4    7     1       0.4558150480E-01       4    7    1         0.1885347723E+01      0.5840131272E+01
          0                 2           2             9    9     1       0.7301497068E-02       4    7    1        -0.1885359891E+00      0.7020339426E+00
          0                 3           2             9    9     1       0.2176405226E-02       9    9    1         0.4506906836E-01      0.1225164550E+00
          0                 4           1             9    9     1       0.6486305752E-03       9    9    1         0.1343580245E-01      0.3302854379E-01
          0                 5           1             9    9     1       0.1932861652E-03       9    9    1         0.4003857361E-02      0.9365920088E-02
          0                 6           1             9    9     1       0.5759182514E-04       9    9    1         0.1193103354E-02      0.2679812051E-02

    ------------------------------------------------
       NWT REQUIRED            6 OUTER ITERATIONS 
       AND A TOTAL OF          9 INNER ITERATIONS.
    ------------------------------------------------

 NO OUTPUT CONTROL FOR STRESS PERIOD   12   TIME STEP    4
 
 SOLVING FOR HEAD 
                                                   Max.-Head-Change                         Max.-Flux-Residual
  Residual-Control   Outer-Iter.   Inner-Iter.     Column Row Layer    Maximum-Head-Change  Column Row Layer    Maximum-Flux-Residual          L2-NORM 
          0                 1           2             4    7     1       0.5004547940E-01       4    7    1         0.1882122131E+01      0.5816343128E+01
          0                 2           2             9    9     1       0.8001197720E-02       4    7    1        -0.1882136412E+00      0.6927537255E+00
          0                 3           2             9    9     1       0.2384082301E-02       9    9    1         0.4489428046E-01      0.1186544646E+00
          0                 4           1             9    9     1       0.7102453990E-03       9    9    1         0.1337860749E-01      0.3192720702E-01
          0                 5           1             9    9     1       0.2115614427E-03       9    9    1         0.3985232221E-02      0.9064698404E-02
          0                 6           1             9    9     1       0.6301135729E-04       9    9    1         0.1187071385E-02      0.2597594911E-02

    ------------------------------------------------
       NWT REQUIRED            6 OUTER ITERATIONS 
       AND A TOTAL OF          9 INNER ITERATIONS.
    ------------------------------------------------

 OUTPUT CONTROL FOR STRESS PERIOD   12   TIME STEP    5
    PRINT BUDGET
    SAVE BUDGET

  HEAD DEP BOUNDS   PERIOD   12   STEP     5
 BOUNDARY      1   LAYER   1   ROW    13   COL     1   RATE   -0.284063    
 BOUNDARY      2   LAYER   1   ROW    14   COL     9   RATE    0.205989    



 STREAM LISTING     PERIOD     12   STEP        5

 LAYER ROW COL. STREAM  RCH.  FLOW INTO     FLOW TO   FLOW OUT OF   OVRLND.     DIRECT     STREAM       STREAM     STREAM     STREAM   STREAMBED  STREAMBED
                SEG.NO.  NO.  STRM. RCH.    AQUIFER    STRM. RCH.    RUNOFF     PRECIP       ET          HEAD       DEPTH      WIDTH   CONDCTNC.   GRADIENT

   1    1    1     1     1    2.5000E+01  1.1296E+00   2.3870E+01  0.000E+00  0.000E+00  0.000E+00  1.09422E+03  1.172E+00  1.295E+01  5.827E-01  6.461E-01
   1    2    2     1     2    2.3870E+01  2.3875E+00   2.1483E+01  0.000E+00  0.000E+00  0.000E+00  1.08920E+03  1.144E+00  1.259E+01  8.811E-01  9.033E-01
   1    3    3     1     3    2.1483E+01  2.9525E+00   1.8530E+01  0.000E+00  0.000E+00  0.000E+00  1.08352E+03  1.100E+00  1.200E+01  7.201E-01  1.367E+00
   1    3    4     1     4    1.8530E+01  2.4590E+00   1.6071E+01  0.000E+00  0.000E+00  0.000E+00  1.07846E+03  1.055E+00  1.116E+01  6.197E-01  1.323E+00
   1    4    5     2     1    6.0715E+00  2.6868E+00   3.3847E+00  0.000E+00  0.000E+00  0.000E+00  1.07238E+03  4.446E-01  1.200E+01  7.800E-01  1.148E+00
   1    5    6     2     2    3.3847E+00  1.9774E+00   1.4073E+00  0.000E+00  0.000E+00  0.000E+00  1.06681E+03  2.957E-01  1.200E+01  6.000E-01  1.099E+00
   1    6    6     2     3    1.4073E+00  1.4073E+00   0.0000E+00  0.000E+00  0.000E+00  0.000E+00  1.06184E+03  4.835E-02  1.200E+01  6.000E-01  1.016E+00
   1    7    6     2     4    0.0000E+00  0.0000E+00   0.0000E+00  0.000E+00  0.000E+00  0.000E+00  1.05708E+03  0.000E+00  1.200E+01  6.000E-01  1.000E+00
   1    8    6     2     5    0.0000E+00  0.0000E+00   0.0000E+00  0.000E+00  0.000E+00  0.000E+00  1.05236E+03  0.000E+00  1.200E+01  6.000E-01  1.000E+00
   1    3    5     3     1    1.0000E+01  1.7526E+00   8.2474E+00  0.000E+00  0.000E+00  0.000E+00  1.07555E+03  1.909E+00  9.636E+00  7.227E-01  1.213E+00
   1    3    6     3     2    8.2474E+00  1.3424E+00   6.9050E+00  0.000E+00  0.000E+00  0.000E+00  1.07264E+03  1.727E+00  8.909E+00  6.682E-01  1.004E+00
   1    3    7     3     3    6.9050E+00  8.0667E-01   6.0983E+00  0.000E+00  0.000E+00  0.000E+00  1.06987E+03  1.555E+00  8.218E+00  5.547E-01  7.271E-01
   1    4    8     3     4    6.0983E+00  1.3990E+00   4.6993E+00  0.000E+00  0.000E+00  0.000E+00  1.06682E+03  1.364E+00  7.455E+00  6.709E-01  1.043E+00
   1    5    8     3     5    4.6993E+00  1.4399E+00   3.2594E+00  0.000E+00  0.000E+00  0.000E+00  1.06362E+03  1.164E+00  6.655E+00  4.991E-01  1.443E+00
   1    6    8     3     6    3.2594E+00  5.5980E-01   2.6996E+00  0.000E+00  0.000E+00  0.000E+00  1.06158E+03  1.036E+00  6.145E+00  1.844E-01  1.518E+00
   1    5   10     4     1    1.0000E+01  9.0525E-01   9.0947E+00  0.000E+00  0.000E+00  0.000E+00  1.07835E+03  6.210E-01  1.000E+01  2.500E-01  1.207E+00
   1    5    9     4     2    9.0947E+00  1.7835E+00   7.3113E+00  0.000E+00  0.000E+00  0.000E+00  1.07148E+03  5.670E-01  1.000E+01  5.000E-01  1.189E+00
   1    6    8     4     3    7.3113E+00  1.2257E+00   6.0855E+00  0.000E+00  0.000E+00  0.000E+00  1.06368E+03  5.021E-01  1.000E+01  3.500E-01  1.167E+00
   1    6    8     5     1    8.7852E+00  2.2511E-01   8.5601E+00  0.000E+00  0.000E+00  0.000E+00  1.05864E+03  6.390E-01  1.389E+01  5.556E-01  1.351E-01
   1    7    7     5     2    8.5601E+00  1.2235E+00   7.3366E+00  0.000E+00  0.000E+00  0.000E+00  1.05412E+03  6.198E-01  1.318E+01  6.591E-01  6.188E-01
   1    8    7     5     3    7.3366E+00  8.7817E-01   6.4584E+00  0.000E+00  0.000E+00  0.000E+00  1.04984E+03  5.897E-01  1.211E+01  4.237E-01  6.909E-01
   1    8    6     5     4    6.4584E+00  8.2909E-01   5.6293E+00  0.000E+00  0.000E+00  0.000E+00  1.04681E+03  5.631E-01  1.118E+01  2.796E-01  9.885E-01
   1    9    6     6     1    5.6293E+00  1.7450E+00   3.8843E+00  0.000E+00  0.000E+00  0.000E+00  1.04318E+03  4.512E-01  1.200E+01  6.000E-01  9.695E-01
   1   10    7     6     2    3.8843E+00  1.0218E+00   2.8625E+00  0.000E+00  0.000E+00  0.000E+00  1.03855E+03  3.671E-01  1.200E+01  6.000E-01  5.677E-01
   1   11    7     6     3    2.8625E+00  6.7902E-01   2.1834E+00  0.000E+00  0.000E+00  0.000E+00  1.03394E+03  3.084E-01  1.200E+01  6.000E-01  3.772E-01
   1   12    7     6     4    2.1834E+00  3.5458E-01   1.8289E+00  0.000E+00  0.000E+00  0.000E+00  1.02936E+03  2.688E-01  1.200E+01  6.000E-01  1.970E-01
   1   13    7     6     5    1.8289E+00 -7.8130E-01   2.6102E+00  0.000E+00  0.000E+00  0.000E+00  1.02619E+03  2.856E-01  1.200E+01  2.400E-01 -1.085E+00
   1   14    9     7     1    1.5000E+02  1.6131E+00   1.4839E+02  0.000E+00  0.000E+00  0.000E+00  1.03987E+03  2.287E+00  5.529E+01  5.593E+00  9.614E-02
   1   13    8     7     2    1.4839E+02  1.5321E+00   1.4685E+02  0.000E+00  0.000E+00  0.000E+00  1.03478E+03  2.279E+00  5.525E+01  6.147E+00  8.307E-02
   1   13    7     7     3    1.4685E+02  1.3414E+00   1.4551E+02  0.000E+00  0.000E+00  0.000E+00  1.02969E+03  2.271E+00  5.522E+01  5.585E+00  8.006E-02
   1   13    6     8     1    1.4812E+02  1.4265E-01   1.4798E+02  0.000E+00  0.000E+00  0.000E+00  1.02468E+03  2.803E+00  4.064E+01  4.142E+00  1.148E-02
   1   13    5     8     2    1.4798E+02 -5.1956E-01   1.4850E+02  0.000E+00  0.000E+00  0.000E+00  1.01843E+03  2.804E+00  4.066E+01  4.144E+00 -4.179E-02
   1   13    4     8     3    1.4850E+02 -1.3806E+00   1.4988E+02  0.000E+00  0.000E+00  0.000E+00  1.01219E+03  2.811E+00  4.076E+01  4.154E+00 -1.108E-01
   1   13    3     8     4    1.4988E+02 -2.0587E+00   1.5194E+02  0.000E+00  0.000E+00  0.000E+00  1.00595E+03  2.823E+00  4.094E+01  4.172E+00 -1.645E-01
   1   13    2     8     5    1.5194E+02 -2.1174E+00   1.5406E+02  0.000E+00  0.000E+00  0.000E+00  9.99713E+02  2.838E+00  4.115E+01  4.193E+00 -1.683E-01
   1   13    1     8     6    1.5406E+02 -1.8927E+00   1.5595E+02  0.000E+00  0.000E+00  0.000E+00  9.94727E+02  2.852E+00  4.135E+01  2.528E+00 -2.495E-01



 UBDSV3 SAVING "           GW ET" ON UNIT  61 AT TIME STEP  5, STRESS PERIOD  12
 UBDSV3 SAVING "    UZF RECHARGE" ON UNIT  61 AT TIME STEP  5, STRESS PERIOD  12
 UBDSV3 SAVING " SURFACE LEAKAGE" ON UNIT  61 AT TIME STEP  5, STRESS PERIOD  12
 UBDSV3 SAVING "       HORT+DUNN" ON UNIT  61 AT TIME STEP  5, STRESS PERIOD  12
 UBDSV3 SAVING "  STORAGE CHANGE" ON UNIT  61 AT TIME STEP  5, STRESS PERIOD  12


UNSATURATED ZONE PACKAGE VOLUMETRIC BUDGET FOR  TIME STEP     5 STRESS PERIOD   12
  ------------------------------------------------------------------------------



     CUMULATIVE VOLUMES      L**3       RATES FOR THIS TIME STEP      L**3/T
     ------------------                 ------------------------

           IN:                                      IN:
           ---                                      ---
        INFILTRATION =  1518264909.8794          INFILTRATION =           8.4750

          OUT:                                     OUT:
          ----                                     ----
              UZF ET =       11615.6164                UZF ET =       0.0000E+00
        UZF RECHARGE =  1351960713.7285          UZF RECHARGE =          29.3404

            IN - OUT =   166292580.5345              IN - OUT =         -20.8654

          STORAGE:                                 STORAGE:
          --------                                 --------
      STORAGE CHANGE =   167355445.5018        STORAGE CHANGE =         -20.8654

 PERCENT DISCREPANCY IS DIFFERENCE BETWEEN IN-OUT MINUS CHANGE IN STORAGE
 DIVIDED BY THE AVERAGE OF IN AND OUT TIMES 100

 PERCENT DISCREPANCY =          -0.02     PERCENT DISCREPANCY =           0.00






1
  VOLUMETRIC BUDGET FOR ENTIRE MODEL AT END OF TIME STEP    5, STRESS PERIOD  12
  ------------------------------------------------------------------------------

     CUMULATIVE VOLUMES      L**3       RATES FOR THIS TIME STEP      L**3/T
     ------------------                 ------------------------

           IN:                                      IN:
           ---                                      ---
             STORAGE     =   129076856.0000               STORAGE     =           2.7132
       CONSTANT HEAD     =           0.0000         CONSTANT HEAD     =           0.0000
               WELLS     =           0.0000                 WELLS     =           0.0000
     HEAD DEP BOUNDS     =     6077055.0000       HEAD DEP BOUNDS     =           0.2060
      STREAM LEAKAGE     =  1150554880.0000        STREAM LEAKAGE     =          37.8003
        UZF RECHARGE     =  1351961216.0000          UZF RECHARGE     =          29.3404
               GW ET     =           0.0000                 GW ET     =           0.0000
     SURFACE LEAKAGE     =           0.0000       SURFACE LEAKAGE     =           0.0000

                TOTAL IN =  2637669888.0000                  TOTAL IN =          70.0599

          OUT:                                     OUT:
          ----                                     ----
             STORAGE     =  1210895104.0000               STORAGE     =          35.7224
       CONSTANT HEAD     =           0.0000         CONSTANT HEAD     =           0.0000
               WELLS     =   394199936.0000                 WELLS     =           0.0000
     HEAD DEP BOUNDS     =     8350984.0000       HEAD DEP BOUNDS     =           0.2841
      STREAM LEAKAGE     =   247764272.0000        STREAM LEAKAGE     =           8.7503
        UZF RECHARGE     =           0.0000          UZF RECHARGE     =           0.0000
               GW ET     =   708806208.0000                 GW ET     =          25.3004
     SURFACE LEAKAGE     =    67618264.0000       SURFACE LEAKAGE     =           0.0000

               TOTAL OUT =  2637634816.0000                 TOTAL OUT =          70.0571

                IN - OUT =       35072.0000                  IN - OUT =       2.7695E-03

     PERCENT DISCREPANCY =           0.00         PERCENT DISCREPANCY =           0.00






         TIME SUMMARY AT END OF TIME STEP    5 IN STRESS PERIOD   12
                    SECONDS     MINUTES      HOURS       DAYS        YEARS
                    -----------------------------------------------------------
   TIME STEP LENGTH 1.21100E+05  2018.3      33.639      1.4016     3.83743E-03
 STRESS PERIOD TIME 5.04972E+05  8416.2      140.27      5.8446     1.60016E-02
         TOTAL TIME 2.94130E+07 4.90216E+05  8170.3      340.43     0.93204    
1
 
 SOLVING FOR HEAD 
                                                   Max.-Head-Change                         Max.-Flux-Residual
  Residual-Control   Outer-Iter.   Inner-Iter.     Column Row Layer    Maximum-Head-Change  Column Row Layer    Maximum-Flux-Residual          L2-NORM 
          0                 1           2             4    7     1       0.5493642594E-01       4    7    1         0.1878596286E+01      0.5797741351E+01
          0                 2           2             9    9     1       0.8763392069E-02       4    7    1        -0.1878613100E+00      0.6888227706E+00
          0                 3           2             9    9     1       0.2610086152E-02       9    9    1         0.4469611929E-01      0.1173278270E+00
          0                 4           1             9    9     1       0.7772396228E-03       9    9    1         0.1331390681E-01      0.3151374456E-01
          0                 5           1             9    9     1       0.2314157208E-03       9    9    1         0.3964242038E-02      0.8939298026E-02
          0                 6           1             9    9     1       0.6889413110E-04       9    9    1         0.1180300255E-02      0.2559951350E-02

    ------------------------------------------------
       NWT REQUIRED            6 OUTER ITERATIONS 
       AND A TOTAL OF          9 INNER ITERATIONS.
    ------------------------------------------------

 NO OUTPUT CONTROL FOR STRESS PERIOD   12   TIME STEP    6
 
 SOLVING FOR HEAD 
                                                   Max.-Head-Change                         Max.-Flux-Residual
  Residual-Control   Outer-Iter.   Inner-Iter.     Column Row Layer    Maximum-Head-Change  Column Row Layer    Maximum-Flux-Residual          L2-NORM 
          0                 1           2             4    7     1       0.6029279747E-01       4    7    1         0.1874730001E+01      0.5795374190E+01
          0                 2           2             1    4     1       0.1125183643E-01       4    7    1        -0.1874749861E+00      0.7027622597E+00
          0                 3           2             1    4     1       0.3783641135E-02       1    4    1         0.5898555458E-01      0.1283457166E+00
          0                 4           1             1    4     1       0.1272072304E-02       1    4    1         0.1983548442E-01      0.3640274174E-01
          0                 5           1             1    4     1       0.4276092060E-03       1    4    1         0.6668321033E-02      0.1093066766E-01
          0                 6           1             1    4     1       0.1437239295E-03       1    4    1         0.2241508413E-02      0.3344784785E-02
          0                 7           1             1    4     1       0.4830236284E-04       1    4    1         0.7533728819E-03      0.1039677661E-02

    ------------------------------------------------
       NWT REQUIRED            7 OUTER ITERATIONS 
       AND A TOTAL OF         10 INNER ITERATIONS.
    ------------------------------------------------

 NO OUTPUT CONTROL FOR STRESS PERIOD   12   TIME STEP    7
 
 SOLVING FOR HEAD 
                                                   Max.-Head-Change                         Max.-Flux-Residual
  Residual-Control   Outer-Iter.   Inner-Iter.     Column Row Layer    Maximum-Head-Change  Column Row Layer    Maximum-Flux-Residual          L2-NORM 
          0                 1           2             4    7     1       0.6615637979E-01       4    7    1         0.1870483567E+01      0.5781114243E+01
          0                 2           2             1    4     1       0.1246669793E-01       4    7    1        -0.1870507098E+00      0.7014480910E+00
          0                 3           2             1    4     1       0.4189870326E-02       1    4    1         0.5940119590E-01      0.1280412152E+00
          0                 4           1             1    4     1       0.1407848457E-02       1    4    1         0.1996621042E-01      0.3630304459E-01
          0                 5           1             1    4     1       0.4729741815E-03       1    4    1         0.6708230650E-02      0.1090381860E-01
          0                 6           1             1    4     1       0.1588766227E-03       1    4    1         0.2253618559E-02      0.3338255979E-02
          0                 7           1             1    4     1       0.5336238137E-04       1    4    1         0.7569865401E-03      0.1038172023E-02

    ------------------------------------------------
       NWT REQUIRED            7 OUTER ITERATIONS 
       AND A TOTAL OF         10 INNER ITERATIONS.
    ------------------------------------------------

 NO OUTPUT CONTROL FOR STRESS PERIOD   12   TIME STEP    8
 
 SOLVING FOR HEAD 
                                                   Max.-Head-Change                         Max.-Flux-Residual
  Residual-Control   Outer-Iter.   Inner-Iter.     Column Row Layer    Maximum-Head-Change  Column Row Layer    Maximum-Flux-Residual          L2-NORM 
          0                 1           2             4    7     1       0.7257202070E-01       4    7    1         0.1865825603E+01      0.5752971645E+01
          0                 2           2             1    4     1       0.1360824495E-01       1    4    1         0.1755398729E+00      0.6255968803E+00
          0                 3           2             1    4     1       0.4570801668E-02       1    4    1         0.5893769087E-01      0.1233890191E+00
          0                 4           2             1    4     1       0.1534890269E-02       1    4    1         0.1979864811E-01      0.3498543226E-01
          0                 5           1             1    4     1       0.5153230474E-03       1    4    1         0.6647737227E-02      0.1046725214E-01
          0                 6           1             1    4     1       0.1729879188E-03       1    4    1         0.2231852127E-02      0.3197746353E-02
          0                 7           1             1    4     1       0.5806293706E-04       1    4    1         0.7491782500E-03      0.9937046090E-03

    ------------------------------------------------
       NWT REQUIRED            7 OUTER ITERATIONS 
       AND A TOTAL OF         11 INNER ITERATIONS.
    ------------------------------------------------

 NO OUTPUT CONTROL FOR STRESS PERIOD   12   TIME STEP    9
 
 SOLVING FOR HEAD 
                                                   Max.-Head-Change                         Max.-Flux-Residual
  Residual-Control   Outer-Iter.   Inner-Iter.     Column Row Layer    Maximum-Head-Change  Column Row Layer    Maximum-Flux-Residual          L2-NORM 
          0                 1           2             4    7     1       0.8165902074E-01       4    7    1         0.1909043459E+01      0.5795702627E+01
          0                 2           2             1    4     1       0.1483383821E-01       1    4    1         0.1740794583E+00      0.6825007714E+00
          0                 3           2             1    4     1       0.4977939974E-02       1    4    1         0.5839266688E-01      0.1277233034E+00
          0                 4           2             1    4     1       0.1670133932E-02       1    4    1         0.1959794439E-01      0.3565617483E-01
          0                 5           1             1    4     1       0.5602470501E-03       1    4    1         0.6574573589E-02      0.1059693692E-01
          0                 6           1             1    4     1       0.1879097777E-03       1    4    1         0.2205400098E-02      0.3220773791E-02
          0                 7           1             1    4     1       0.6301908322E-04       1    4    1         0.7396773467E-03      0.9963238974E-03

    ------------------------------------------------
       NWT REQUIRED            7 OUTER ITERATIONS 
       AND A TOTAL OF         11 INNER ITERATIONS.
    ------------------------------------------------

 OUTPUT CONTROL FOR STRESS PERIOD   12   TIME STEP   10
    PRINT BUDGET
    SAVE BUDGET

  HEAD DEP BOUNDS   PERIOD   12   STEP    10
 BOUNDARY      1   LAYER   1   ROW    13   COL     1   RATE   -0.284063    
 BOUNDARY      2   LAYER   1   ROW    14   COL     9   RATE    0.205974    



 STREAM LISTING     PERIOD     12   STEP       10

 LAYER ROW COL. STREAM  RCH.  FLOW INTO     FLOW TO   FLOW OUT OF   OVRLND.     DIRECT     STREAM       STREAM     STREAM     STREAM   STREAMBED  STREAMBED
                SEG.NO.  NO.  STRM. RCH.    AQUIFER    STRM. RCH.    RUNOFF     PRECIP       ET          HEAD       DEPTH      WIDTH   CONDCTNC.   GRADIENT

   1    1    1     1     1    2.5000E+01  1.1264E+00   2.3874E+01  0.000E+00  0.000E+00  0.000E+00  1.09422E+03  1.172E+00  1.295E+01  5.827E-01  6.443E-01
   1    2    2     1     2    2.3874E+01  2.3733E+00   2.1500E+01  0.000E+00  0.000E+00  0.000E+00  1.08920E+03  1.145E+00  1.259E+01  8.812E-01  8.977E-01
   1    3    3     1     3    2.1500E+01  2.9536E+00   1.8547E+01  0.000E+00  0.000E+00  0.000E+00  1.08352E+03  1.100E+00  1.201E+01  7.203E-01  1.367E+00
   1    3    4     1     4    1.8547E+01  2.4525E+00   1.6094E+01  0.000E+00  0.000E+00  0.000E+00  1.07846E+03  1.055E+00  1.117E+01  6.200E-01  1.319E+00
   1    4    5     2     1    6.0942E+00  2.6878E+00   3.4064E+00  0.000E+00  0.000E+00  0.000E+00  1.07238E+03  4.458E-01  1.200E+01  7.800E-01  1.149E+00
   1    5    6     2     2    3.4064E+00  1.9784E+00   1.4281E+00  0.000E+00  0.000E+00  0.000E+00  1.06681E+03  2.973E-01  1.200E+01  6.000E-01  1.099E+00
   1    6    6     2     3    1.4281E+00  1.4281E+00   0.0000E+00  0.000E+00  0.000E+00  0.000E+00  1.06184E+03  4.877E-02  1.200E+01  6.000E-01  1.016E+00
   1    7    6     2     4    0.0000E+00  0.0000E+00   0.0000E+00  0.000E+00  0.000E+00  0.000E+00  1.05708E+03  0.000E+00  1.200E+01  6.000E-01  1.000E+00
   1    8    6     2     5    0.0000E+00  0.0000E+00   0.0000E+00  0.000E+00  0.000E+00  0.000E+00  1.05236E+03  0.000E+00  1.200E+01  6.000E-01  1.000E+00
   1    3    5     3     1    1.0000E+01  1.7933E+00   8.2067E+00  0.000E+00  0.000E+00  0.000E+00  1.07555E+03  1.909E+00  9.636E+00  7.227E-01  1.241E+00
   1    3    6     3     2    8.2067E+00  1.3784E+00   6.8283E+00  0.000E+00  0.000E+00  0.000E+00  1.07264E+03  1.727E+00  8.909E+00  6.682E-01  1.031E+00
   1    3    7     3     3    6.8283E+00  8.2016E-01   6.0081E+00  0.000E+00  0.000E+00  0.000E+00  1.06987E+03  1.555E+00  8.218E+00  5.547E-01  7.392E-01
   1    4    8     3     4    6.0081E+00  1.3997E+00   4.6084E+00  0.000E+00  0.000E+00  0.000E+00  1.06682E+03  1.364E+00  7.455E+00  6.709E-01  1.043E+00
   1    5    8     3     5    4.6084E+00  1.4395E+00   3.1689E+00  0.000E+00  0.000E+00  0.000E+00  1.06362E+03  1.164E+00  6.655E+00  4.991E-01  1.442E+00
   1    6    8     3     6    3.1689E+00  5.5980E-01   2.6091E+00  0.000E+00  0.000E+00  0.000E+00  1.06158E+03  1.036E+00  6.145E+00  1.844E-01  1.518E+00
   1    5   10     4     1    1.0000E+01  9.0525E-01   9.0947E+00  0.000E+00  0.000E+00  0.000E+00  1.07835E+03  6.210E-01  1.000E+01  2.500E-01  1.207E+00
   1    5    9     4     2    9.0947E+00  1.7835E+00   7.3113E+00  0.000E+00  0.000E+00  0.000E+00  1.07148E+03  5.670E-01  1.000E+01  5.000E-01  1.189E+00
   1    6    8     4     3    7.3113E+00  1.2257E+00   6.0855E+00  0.000E+00  0.000E+00  0.000E+00  1.06368E+03  5.021E-01  1.000E+01  3.500E-01  1.167E+00
   1    6    8     5     1    8.6947E+00  2.2061E-01   8.4741E+00  0.000E+00  0.000E+00  0.000E+00  1.05864E+03  6.367E-01  1.380E+01  5.522E-01  1.332E-01
   1    7    7     5     2    8.4741E+00  1.2090E+00   7.2651E+00  0.000E+00  0.000E+00  0.000E+00  1.05412E+03  6.176E-01  1.310E+01  6.551E-01  6.151E-01
   1    8    7     5     3    7.2651E+00  8.6706E-01   6.3980E+00  0.000E+00  0.000E+00  0.000E+00  1.04984E+03  5.878E-01  1.204E+01  4.213E-01  6.861E-01
   1    8    6     5     4    6.3980E+00  8.1657E-01   5.5815E+00  0.000E+00  0.000E+00  0.000E+00  1.04681E+03  5.613E-01  1.112E+01  2.781E-01  9.788E-01
   1    9    6     6     1    5.5815E+00  1.7336E+00   3.8479E+00  0.000E+00  0.000E+00  0.000E+00  1.04318E+03  4.488E-01  1.200E+01  6.000E-01  9.631E-01
   1   10    7     6     2    3.8479E+00  1.0128E+00   2.8350E+00  0.000E+00  0.000E+00  0.000E+00  1.03855E+03  3.650E-01  1.200E+01  6.000E-01  5.627E-01
   1   11    7     6     3    2.8350E+00  6.7211E-01   2.1629E+00  0.000E+00  0.000E+00  0.000E+00  1.03394E+03  3.066E-01  1.200E+01  6.000E-01  3.734E-01
   1   12    7     6     4    2.1629E+00  3.5071E-01   1.8122E+00  0.000E+00  0.000E+00  0.000E+00  1.02936E+03  2.673E-01  1.200E+01  6.000E-01  1.948E-01
   1   13    7     6     5    1.8122E+00 -7.8100E-01   2.5932E+00  0.000E+00  0.000E+00  0.000E+00  1.02619E+03  2.843E-01  1.200E+01  2.400E-01 -1.085E+00
   1   14    9     7     1    1.5000E+02  1.6109E+00   1.4839E+02  0.000E+00  0.000E+00  0.000E+00  1.03987E+03  2.287E+00  5.529E+01  5.593E+00  9.601E-02
   1   13    8     7     2    1.4839E+02  1.5394E+00   1.4685E+02  0.000E+00  0.000E+00  0.000E+00  1.03478E+03  2.279E+00  5.525E+01  6.147E+00  8.347E-02
   1   13    7     7     3    1.4685E+02  1.3553E+00   1.4549E+02  0.000E+00  0.000E+00  0.000E+00  1.02969E+03  2.271E+00  5.522E+01  5.585E+00  8.089E-02
   1   13    6     8     1    1.4809E+02  1.4631E-01   1.4794E+02  0.000E+00  0.000E+00  0.000E+00  1.02468E+03  2.803E+00  4.064E+01  4.141E+00  1.178E-02
   1   13    5     8     2    1.4794E+02 -5.1360E-01   1.4845E+02  0.000E+00  0.000E+00  0.000E+00  1.01843E+03  2.804E+00  4.066E+01  4.143E+00 -4.132E-02
   1   13    4     8     3    1.4845E+02 -1.3725E+00   1.4983E+02  0.000E+00  0.000E+00  0.000E+00  1.01219E+03  2.811E+00  4.076E+01  4.153E+00 -1.102E-01
   1   13    3     8     4    1.4983E+02 -2.0539E+00   1.5188E+02  0.000E+00  0.000E+00  0.000E+00  1.00595E+03  2.823E+00  4.093E+01  4.171E+00 -1.641E-01
   1   13    2     8     5    1.5188E+02 -2.1235E+00   1.5400E+02  0.000E+00  0.000E+00  0.000E+00  9.99712E+02  2.837E+00  4.114E+01  4.193E+00 -1.688E-01
   1   13    1     8     6    1.5400E+02 -1.8934E+00   1.5590E+02  0.000E+00  0.000E+00  0.000E+00  9.94726E+02  2.851E+00  4.134E+01  2.528E+00 -2.497E-01



 UBDSV3 SAVING "           GW ET" ON UNIT  61 AT TIME STEP 10, STRESS PERIOD  12
 UBDSV3 SAVING "    UZF RECHARGE" ON UNIT  61 AT TIME STEP 10, STRESS PERIOD  12
 UBDSV3 SAVING " SURFACE LEAKAGE" ON UNIT  61 AT TIME STEP 10, STRESS PERIOD  12
 UBDSV3 SAVING "       HORT+DUNN" ON UNIT  61 AT TIME STEP 10, STRESS PERIOD  12
 UBDSV3 SAVING "  STORAGE CHANGE" ON UNIT  61 AT TIME STEP 10, STRESS PERIOD  12


UNSATURATED ZONE PACKAGE VOLUMETRIC BUDGET FOR  TIME STEP    10 STRESS PERIOD   12
  ------------------------------------------------------------------------------



     CUMULATIVE VOLUMES      L**3       RATES FOR THIS TIME STEP      L**3/T
     ------------------                 ------------------------

           IN:                                      IN:
           ---                                      ---
        INFILTRATION =  1525157303.8115          INFILTRATION =           8.4750

          OUT:                                     OUT:
          ----                                     ----
              UZF ET =       11615.6164                UZF ET =       0.0000E+00
        UZF RECHARGE =  1375955244.7544          UZF RECHARGE =          31.1280

            IN - OUT =   149190443.4408              IN - OUT =         -22.6530

          STORAGE:                                 STORAGE:
          --------                                 --------
      STORAGE CHANGE =   150238158.4743        STORAGE CHANGE =         -22.6633

 PERCENT DISCREPANCY IS DIFFERENCE BETWEEN IN-OUT MINUS CHANGE IN STORAGE
 DIVIDED BY THE AVERAGE OF IN AND OUT TIMES 100

 PERCENT DISCREPANCY =          -0.02     PERCENT DISCREPANCY =           0.03






1
  VOLUMETRIC BUDGET FOR ENTIRE MODEL AT END OF TIME STEP   10, STRESS PERIOD  12
  ------------------------------------------------------------------------------

     CUMULATIVE VOLUMES      L**3       RATES FOR THIS TIME STEP      L**3/T
     ------------------                 ------------------------

           IN:                                      IN:
           ---                                      ---
             STORAGE     =   131421408.0000               STORAGE     =           2.8254
       CONSTANT HEAD     =           0.0000         CONSTANT HEAD     =           0.0000
               WELLS     =           0.0000                 WELLS     =           0.0000
     HEAD DEP BOUNDS     =     6244586.0000       HEAD DEP BOUNDS     =           0.2060
      STREAM LEAKAGE     =  1181318016.0000        STREAM LEAKAGE     =          37.8397
        UZF RECHARGE     =  1375955840.0000          UZF RECHARGE     =          31.1280
               GW ET     =           0.0000                 GW ET     =           0.0000
     SURFACE LEAKAGE     =           0.0000       SURFACE LEAKAGE     =           0.0000

                TOTAL IN =  2694939904.0000                  TOTAL IN =          71.9991

          OUT:                                     OUT:
          ----                                     ----
             STORAGE     =  1240225920.0000               STORAGE     =          37.6379
       CONSTANT HEAD     =           0.0000         CONSTANT HEAD     =           0.0000
               WELLS     =   394199936.0000                 WELLS     =           0.0000
     HEAD DEP BOUNDS     =     8582000.0000       HEAD DEP BOUNDS     =           0.2841
      STREAM LEAKAGE     =   254876752.0000        STREAM LEAKAGE     =           8.7379
        UZF RECHARGE     =           0.0000          UZF RECHARGE     =           0.0000
               GW ET     =   729400768.0000                 GW ET     =          25.3382
     SURFACE LEAKAGE     =    67618264.0000       SURFACE LEAKAGE     =           0.0000

               TOTAL OUT =  2694903808.0000                 TOTAL OUT =          71.9981

                IN - OUT =       36096.0000                  IN - OUT =       9.9945E-04

     PERCENT DISCREPANCY =           0.00         PERCENT DISCREPANCY =           0.00






         TIME SUMMARY AT END OF TIME STEP   10 IN STRESS PERIOD   12
                    SECONDS     MINUTES      HOURS       DAYS        YEARS
                    -----------------------------------------------------------
   TIME STEP LENGTH 1.95033E+05  3250.6      54.176      2.2573     6.18023E-03
 STRESS PERIOD TIME 1.31823E+06  21971.      366.18      15.257     4.17723E-02
         TOTAL TIME 3.02262E+07 5.03770E+05  8396.2      349.84     0.95781    
1
 
 SOLVING FOR HEAD 
                                                   Max.-Head-Change                         Max.-Flux-Residual
  Residual-Control   Outer-Iter.   Inner-Iter.     Column Row Layer    Maximum-Head-Change  Column Row Layer    Maximum-Flux-Residual          L2-NORM 
          0                 1           2             4    7     1       0.8943740366E-01       4    7    1         0.1900815742E+01      0.5820036347E+01
          0                 2           2             6   15     1       0.1797103229E-01       6   15    1         0.1916174782E+00      0.6585422907E+00
          0                 3           2             6   15     1       0.6032998289E-02       6   15    1         0.6432143836E-01      0.1509543589E+00
          0                 4           2             6   15     1       0.2025321073E-02       6   15    1         0.2159379668E-01      0.4531639699E-01
          0                 5           1             6   15     1       0.6799118814E-03       6   15    1         0.7249138132E-02      0.1419842279E-01
          0                 6           1             6   15     1       0.2282485534E-03       6   15    1         0.2433580141E-02      0.4530481414E-02
          0                 7           1             6   15     1       0.7662305380E-04       6   15    1         0.8169584374E-03      0.1463697878E-02

    ------------------------------------------------
       NWT REQUIRED            7 OUTER ITERATIONS 
       AND A TOTAL OF         11 INNER ITERATIONS.
    ------------------------------------------------

 NO OUTPUT CONTROL FOR STRESS PERIOD   12   TIME STEP   11
 
 SOLVING FOR HEAD 
                                                   Max.-Head-Change                         Max.-Flux-Residual
  Residual-Control   Outer-Iter.   Inner-Iter.     Column Row Layer    Maximum-Head-Change  Column Row Layer    Maximum-Flux-Residual          L2-NORM 
          0                 1           2             4    7     1       0.9799200731E-01       4    7    1         0.1893672153E+01      0.5853227237E+01
          0                 2           2             1    6     1       0.1979484030E-01       1    6    1         0.1922409883E+00      0.6586360699E+00
          0                 3           2             1    6     1       0.6628469802E-02       1    6    1         0.6437188850E-01      0.1495892659E+00
          0                 4           2             1    6     1       0.2218230891E-02       1    6    1         0.2155569252E-01      0.4449768385E-01
          0                 5           1             1    6     1       0.7419666627E-03       1    6    1         0.7212312319E-02      0.1394803448E-01
          0                 6           1             6   15     1       0.2490746229E-03       6   15    1         0.2413651716E-02      0.4459851351E-02
          0                 7           1             6   15     1       0.8364131625E-04       6   15    1         0.8105101313E-03      0.1443958656E-02

    ------------------------------------------------
       NWT REQUIRED            7 OUTER ITERATIONS 
       AND A TOTAL OF         11 INNER ITERATIONS.
    ------------------------------------------------

 NO OUTPUT CONTROL FOR STRESS PERIOD   12   TIME STEP   12
 
 SOLVING FOR HEAD 
                                                   Max.-Head-Change                         Max.-Flux-Residual
  Residual-Control   Outer-Iter.   Inner-Iter.     Column Row Layer    Maximum-Head-Change  Column Row Layer    Maximum-Flux-Residual          L2-NORM 
          0                 1           2             4    7     1       0.1073453946E+00       4    7    1         0.1886464956E+01      0.5856640231E+01
          0                 2           2             1    6     1       0.2158453276E-01       1    6    1         0.1904273887E+00      0.6950606250E+00
          0                 3           2             1    6     1       0.7235795091E-02       1    6    1         0.6382456416E-01      0.1594119349E+00
          0                 4           2             1    6     1       0.2424520192E-02       1    6    1         0.2139725999E-01      0.4868918012E-01
          0                 5           1             6   15     1       0.8122555385E-03       1    6    1         0.7168517158E-02      0.1563576264E-01
          0                 6           1             6   15     1       0.2730266023E-03       6   15    1         0.2403405663E-02      0.5102400045E-02
          0                 7           1             6   15     1       0.9177433286E-04       6   15    1         0.8078664122E-03      0.1679759254E-02

    ------------------------------------------------
       NWT REQUIRED            7 OUTER ITERATIONS 
       AND A TOTAL OF         11 INNER ITERATIONS.
    ------------------------------------------------

 NO OUTPUT CONTROL FOR STRESS PERIOD   12   TIME STEP   13
 
 SOLVING FOR HEAD 
                                                   Max.-Head-Change                         Max.-Flux-Residual
  Residual-Control   Outer-Iter.   Inner-Iter.     Column Row Layer    Maximum-Head-Change  Column Row Layer    Maximum-Flux-Residual          L2-NORM 
          0                 1           2             4    7     1       0.1175381650E+00       4    7    1         0.1878583282E+01      0.5812967128E+01
          0                 2           2             1    5     1       0.2294644674E-01       1    5    1         0.1839789664E+00      0.6833574021E+00
          0                 3           2             1    5     1       0.7696195206E-02       1    5    1         0.6168939221E-01      0.1542198333E+00
          0                 4           2             1    5     1       0.2580052633E-02       1    5    1         0.2069223681E-01      0.4657348394E-01
          0                 5           1             1    5     1       0.8645998642E-03       1    5    1         0.6935653849E-02      0.1482424253E-01
          0                 6           1             1    5     1       0.2896434410E-03       1    5    1         0.2324054252E-02      0.4802033848E-02
          0                 7           1             1    5     1       0.9700515222E-04       1    5    1         0.7785059332E-03      0.1570984008E-02

    ------------------------------------------------
       NWT REQUIRED            7 OUTER ITERATIONS 
       AND A TOTAL OF         11 INNER ITERATIONS.
    ------------------------------------------------

 NO OUTPUT CONTROL FOR STRESS PERIOD   12   TIME STEP   14
 
 SOLVING FOR HEAD 
                                                   Max.-Head-Change                         Max.-Flux-Residual
  Residual-Control   Outer-Iter.   Inner-Iter.     Column Row Layer    Maximum-Head-Change  Column Row Layer    Maximum-Flux-Residual          L2-NORM 
          0                 1           2             4    7     1       0.1286275788E+00       4    7    1         0.1869817116E+01      0.5780290496E+01
          0                 2           2             1    7     1       0.2680457330E-01       1    7    1         0.1951869855E+00      0.6853787965E+00
          0                 3           2             1    7     1       0.8999236012E-02       1    7    1         0.6552932643E-01      0.1566897947E+00
          0                 4           2             1    7     1       0.3019958731E-02       1    7    1         0.2200073090E-01      0.4753089663E-01
          0                 5           1             1    7     1       0.1013081549E-02       1    7    1         0.7381957006E-02      0.1514477166E-01
          0                 6           1             1    7     1       0.3397567066E-03       1    7    1         0.2476212572E-02      0.4901654767E-02
          0                 7           1             1    7     1       0.1139187277E-03       1    7    1         0.8303935255E-03      0.1600034773E-02
          0                 8           1             1    7     1       0.3818942044E-04       1    7    1         0.2784136395E-03      0.5251198114E-03

    ------------------------------------------------
       NWT REQUIRED            8 OUTER ITERATIONS 
       AND A TOTAL OF         12 INNER ITERATIONS.
    ------------------------------------------------

 OUTPUT CONTROL FOR STRESS PERIOD   12   TIME STEP   15
    PRINT BUDGET
    PRINT HEAD FOR ALL LAYERS
    SAVE HEAD FOR ALL LAYERS
    SAVE BUDGET

  HEAD DEP BOUNDS   PERIOD   12   STEP    15
 BOUNDARY      1   LAYER   1   ROW    13   COL     1   RATE   -0.284121    
 BOUNDARY      2   LAYER   1   ROW    14   COL     9   RATE    0.205756    



 STREAM LISTING     PERIOD     12   STEP       15

 LAYER ROW COL. STREAM  RCH.  FLOW INTO     FLOW TO   FLOW OUT OF   OVRLND.     DIRECT     STREAM       STREAM     STREAM     STREAM   STREAMBED  STREAMBED
                SEG.NO.  NO.  STRM. RCH.    AQUIFER    STRM. RCH.    RUNOFF     PRECIP       ET          HEAD       DEPTH      WIDTH   CONDCTNC.   GRADIENT

   1    1    1     1     1    2.5000E+01  1.1203E+00   2.3880E+01  0.000E+00  0.000E+00  0.000E+00  1.09422E+03  1.172E+00  1.295E+01  5.828E-01  6.408E-01
   1    2    2     1     2    2.3880E+01  2.3585E+00   2.1521E+01  0.000E+00  0.000E+00  0.000E+00  1.08920E+03  1.145E+00  1.259E+01  8.814E-01  8.919E-01
   1    3    3     1     3    2.1521E+01  2.9531E+00   1.8568E+01  0.000E+00  0.000E+00  0.000E+00  1.08352E+03  1.101E+00  1.201E+01  7.206E-01  1.366E+00
   1    3    4     1     4    1.8568E+01  2.4433E+00   1.6125E+01  0.000E+00  0.000E+00  0.000E+00  1.07846E+03  1.056E+00  1.118E+01  6.205E-01  1.313E+00
   1    4    5     2     1    6.1247E+00  2.6891E+00   3.4356E+00  0.000E+00  0.000E+00  0.000E+00  1.07238E+03  4.475E-01  1.200E+01  7.800E-01  1.149E+00
   1    5    6     2     2    3.4356E+00  1.9796E+00   1.4560E+00  0.000E+00  0.000E+00  0.000E+00  1.06681E+03  2.994E-01  1.200E+01  6.000E-01  1.100E+00
   1    6    6     2     3    1.4560E+00  1.4560E+00   0.0000E+00  0.000E+00  0.000E+00  0.000E+00  1.06184E+03  4.934E-02  1.200E+01  6.000E-01  1.016E+00
   1    7    6     2     4    0.0000E+00  0.0000E+00   0.0000E+00  0.000E+00  0.000E+00  0.000E+00  1.05708E+03  0.000E+00  1.200E+01  6.000E-01  1.000E+00
   1    8    6     2     5    0.0000E+00  0.0000E+00   0.0000E+00  0.000E+00  0.000E+00  0.000E+00  1.05236E+03  0.000E+00  1.200E+01  6.000E-01  1.000E+00
   1    3    5     3     1    1.0000E+01  1.8392E+00   8.1608E+00  0.000E+00  0.000E+00  0.000E+00  1.07555E+03  1.909E+00  9.636E+00  7.227E-01  1.272E+00
   1    3    6     3     2    8.1608E+00  1.4322E+00   6.7286E+00  0.000E+00  0.000E+00  0.000E+00  1.07264E+03  1.727E+00  8.909E+00  6.682E-01  1.072E+00
   1    3    7     3     3    6.7286E+00  8.5050E-01   5.8781E+00  0.000E+00  0.000E+00  0.000E+00  1.06987E+03  1.555E+00  8.218E+00  5.547E-01  7.666E-01
   1    4    8     3     4    5.8781E+00  1.3973E+00   4.4808E+00  0.000E+00  0.000E+00  0.000E+00  1.06682E+03  1.364E+00  7.455E+00  6.709E-01  1.041E+00
   1    5    8     3     5    4.4808E+00  1.4365E+00   3.0443E+00  0.000E+00  0.000E+00  0.000E+00  1.06362E+03  1.164E+00  6.655E+00  4.991E-01  1.439E+00
   1    6    8     3     6    3.0443E+00  5.5980E-01   2.4845E+00  0.000E+00  0.000E+00  0.000E+00  1.06158E+03  1.036E+00  6.145E+00  1.844E-01  1.518E+00
   1    5   10     4     1    1.0000E+01  9.0525E-01   9.0947E+00  0.000E+00  0.000E+00  0.000E+00  1.07835E+03  6.210E-01  1.000E+01  2.500E-01  1.207E+00
   1    5    9     4     2    9.0947E+00  1.7835E+00   7.3113E+00  0.000E+00  0.000E+00  0.000E+00  1.07148E+03  5.670E-01  1.000E+01  5.000E-01  1.189E+00
   1    6    8     4     3    7.3113E+00  1.2257E+00   6.0855E+00  0.000E+00  0.000E+00  0.000E+00  1.06368E+03  5.021E-01  1.000E+01  3.500E-01  1.167E+00
   1    6    8     5     1    8.5700E+00  2.1019E-01   8.3598E+00  0.000E+00  0.000E+00  0.000E+00  1.05863E+03  6.336E-01  1.369E+01  5.475E-01  1.280E-01
   1    7    7     5     2    8.3598E+00  1.1873E+00   7.1725E+00  0.000E+00  0.000E+00  0.000E+00  1.05411E+03  6.147E-01  1.300E+01  6.499E-01  6.089E-01
   1    8    7     5     3    7.1725E+00  8.5121E-01   6.3213E+00  0.000E+00  0.000E+00  0.000E+00  1.04984E+03  5.852E-01  1.195E+01  4.181E-01  6.786E-01
   1    8    6     5     4    6.3213E+00  7.9698E-01   5.5243E+00  0.000E+00  0.000E+00  0.000E+00  1.04681E+03  5.591E-01  1.105E+01  2.762E-01  9.618E-01
   1    9    6     6     1    5.5243E+00  1.7119E+00   3.8124E+00  0.000E+00  0.000E+00  0.000E+00  1.04317E+03  4.461E-01  1.200E+01  6.000E-01  9.511E-01
   1   10    7     6     2    3.8124E+00  1.0019E+00   2.8105E+00  0.000E+00  0.000E+00  0.000E+00  1.03854E+03  3.631E-01  1.200E+01  6.000E-01  5.566E-01
   1   11    7     6     3    2.8105E+00  6.6512E-01   2.1454E+00  0.000E+00  0.000E+00  0.000E+00  1.03394E+03  3.051E-01  1.200E+01  6.000E-01  3.695E-01
   1   12    7     6     4    2.1454E+00  3.4650E-01   1.7989E+00  0.000E+00  0.000E+00  0.000E+00  1.02936E+03  2.660E-01  1.200E+01  6.000E-01  1.925E-01
   1   13    7     6     5    1.7989E+00 -7.8111E-01   2.5800E+00  0.000E+00  0.000E+00  0.000E+00  1.02619E+03  2.833E-01  1.200E+01  2.400E-01 -1.085E+00
   1   14    9     7     1    1.5000E+02  1.5793E+00   1.4842E+02  0.000E+00  0.000E+00  0.000E+00  1.03987E+03  2.287E+00  5.529E+01  5.593E+00  9.413E-02
   1   13    8     7     2    1.4842E+02  1.5491E+00   1.4687E+02  0.000E+00  0.000E+00  0.000E+00  1.03478E+03  2.279E+00  5.525E+01  6.147E+00  8.400E-02
   1   13    7     7     3    1.4687E+02  1.3592E+00   1.4551E+02  0.000E+00  0.000E+00  0.000E+00  1.02969E+03  2.271E+00  5.522E+01  5.585E+00  8.112E-02
   1   13    6     8     1    1.4809E+02  1.4349E-01   1.4795E+02  0.000E+00  0.000E+00  0.000E+00  1.02468E+03  2.803E+00  4.064E+01  4.141E+00  1.155E-02
   1   13    5     8     2    1.4795E+02 -5.0514E-01   1.4845E+02  0.000E+00  0.000E+00  0.000E+00  1.01843E+03  2.804E+00  4.066E+01  4.143E+00 -4.064E-02
   1   13    4     8     3    1.4845E+02 -1.3580E+00   1.4981E+02  0.000E+00  0.000E+00  0.000E+00  1.01219E+03  2.811E+00  4.076E+01  4.153E+00 -1.090E-01
   1   13    3     8     4    1.4981E+02 -2.0376E+00   1.5185E+02  0.000E+00  0.000E+00  0.000E+00  1.00595E+03  2.823E+00  4.093E+01  4.171E+00 -1.628E-01
   1   13    2     8     5    1.5185E+02 -2.1182E+00   1.5397E+02  0.000E+00  0.000E+00  0.000E+00  9.99712E+02  2.837E+00  4.114E+01  4.192E+00 -1.684E-01
   1   13    1     8     6    1.5397E+02 -1.8977E+00   1.5587E+02  0.000E+00  0.000E+00  0.000E+00  9.94726E+02  2.851E+00  4.134E+01  2.528E+00 -2.503E-01



 UBDSV3 SAVING "           GW ET" ON UNIT  61 AT TIME STEP 15, STRESS PERIOD  12
 UBDSV3 SAVING "    UZF RECHARGE" ON UNIT  61 AT TIME STEP 15, STRESS PERIOD  12
 UBDSV3 SAVING " SURFACE LEAKAGE" ON UNIT  61 AT TIME STEP 15, STRESS PERIOD  12
 UBDSV3 SAVING "       HORT+DUNN" ON UNIT  61 AT TIME STEP 15, STRESS PERIOD  12
 UBDSV3 SAVING "  STORAGE CHANGE" ON UNIT  61 AT TIME STEP 15, STRESS PERIOD  12


UNSATURATED ZONE PACKAGE VOLUMETRIC BUDGET FOR  TIME STEP    15 STRESS PERIOD   12
  ------------------------------------------------------------------------------



     CUMULATIVE VOLUMES      L**3       RATES FOR THIS TIME STEP      L**3/T
     ------------------                 ------------------------

           IN:                                      IN:
           ---                                      ---
        INFILTRATION =  1536257573.5947          INFILTRATION =           8.4750

          OUT:                                     OUT:
          ----                                     ----
              UZF ET =       11615.6164                UZF ET =       0.0000E+00
        UZF RECHARGE =  1421747440.4399          UZF RECHARGE =          35.6775

            IN - OUT =   114498517.5385              IN - OUT =         -27.2025

          STORAGE:                                 STORAGE:
          --------                                 --------
      STORAGE CHANGE =   115516342.3166        STORAGE CHANGE =         -27.1844

 PERCENT DISCREPANCY IS DIFFERENCE BETWEEN IN-OUT MINUS CHANGE IN STORAGE
 DIVIDED BY THE AVERAGE OF IN AND OUT TIMES 100

 PERCENT DISCREPANCY =          -0.02     PERCENT DISCREPANCY =          -0.05






1
              HEAD IN LAYER   1 AT END OF TIME STEP  15 IN STRESS PERIOD   12
  ---------------------------------------------------------------------------

           1       2       3       4       5       6       7       8       9      10
 ...................................................................................
   1  1092.30 1088.03 6999.00 6999.00 6999.00 6999.00 6999.00 6999.00 6999.00 6999.00
   2  1089.53 1086.53 1078.77 6999.00 6999.00 1080.50 1079.55 1076.96 6999.00 6999.00
   3  6999.00 1078.95 1079.42 1074.53 1073.00 1070.49 1068.34 1071.42 6999.00 6999.00
   4  1077.13 1072.22 1065.89 1064.02 1066.58 1061.78 1060.69 1064.74 1062.52 6999.00
   5  1073.72 1066.13 1057.03 1054.06 1056.22 1060.80 1057.51 1060.74 1064.59 1066.13
   6  1069.89 1061.14 1054.96 1041.64 1044.36 1054.07 1054.39 1058.25 1058.43 1067.95
   7  1066.91 1056.12 1049.85 1033.59 1036.73 1046.50 1052.29 1053.43 1054.21 6999.00
   8  6999.00 1049.63 1045.04 1029.63 1032.61 1043.92 1047.80 1049.56 1055.08 6999.00
   9  6999.00 1043.49 1040.11 1025.78 1029.07 1040.32 1040.64 1044.00 1051.33 6999.00
  10  6999.00 1036.97 1035.07 1023.33 1025.42 1032.83 1036.88 1039.90 1048.91 1058.31
  11  6999.00 1024.93 1025.30 1024.69 1026.28 1029.40 1032.83 1035.99 1043.49 6999.00
  12  1007.19 1014.28 1016.16 1019.76 1022.68 1025.90 1028.78 1031.29 1037.52 6999.00
  13   995.48 1000.22 1006.44 1012.51 1018.55 1024.64 1029.45 1034.53 1036.13 6999.00
  14  6999.00 1015.65 1023.03 1027.94 1031.76 1034.41 1035.41 1036.27 1039.59 6999.00
  15  6999.00 6999.00 1037.77 1039.02 1043.82 1045.02 6999.00 6999.00 6999.00 6999.00
1
              HEAD IN LAYER   2 AT END OF TIME STEP  15 IN STRESS PERIOD   12
  ---------------------------------------------------------------------------

           1       2       3       4       5       6       7       8       9      10
 ...................................................................................
   1  1091.27 1087.55 6999.00 6999.00 6999.00 6999.00 6999.00 6999.00 6999.00 6999.00
   2  1089.13 1081.76 1076.43 6999.00 6999.00 1078.85 1078.09 1076.30 6999.00 6999.00
   3  6999.00 1075.73 1069.59 1065.70 1064.75 1065.83 1066.95 1070.02 6999.00 6999.00
   4  1075.49 1070.64 1064.31 1060.39 1058.84 1058.30 1059.59 1062.69 1062.28 6999.00
   5  1072.15 1064.68 1058.19 1055.26 1054.76 1054.91 1055.11 1056.83 1060.62 1064.72
   6  1068.46 1059.96 1053.53 1050.42 1050.36 1051.34 1052.45 1054.22 1057.89 1066.99
   7  1065.50 1055.04 1048.75 1045.78 1046.08 1047.38 1049.13 1051.59 1054.43 6999.00
   8  6999.00 1048.72 1043.97 1041.39 1041.86 1043.26 1044.97 1049.06 1054.22 6999.00
   9  6999.00 1042.33 1038.87 1036.96 1037.64 1039.10 1040.48 1043.83 1050.71 6999.00
  10  6999.00 1035.53 1033.60 1032.91 1033.89 1035.36 1036.62 1039.76 1047.89 1057.19
  11  6999.00 1025.66 1026.68 1029.08 1030.67 1032.32 1033.77 1036.18 1042.52 6999.00
  12  1007.52 1015.71 1021.01 1025.00 1027.71 1029.92 1031.51 1032.94 1037.40 6999.00
  13  1000.58 1008.47 1016.97 1022.47 1026.06 1028.89 1031.18 1033.51 1036.07 6999.00
  14  6999.00 1015.99 1022.48 1027.29 1030.99 1033.50 1034.30 1035.71 1037.43 6999.00
  15  6999.00 6999.00 1036.72 1038.33 1042.61 1044.02 6999.00 6999.00 6999.00 6999.00

 HEAD WILL BE SAVED ON UNIT   58 AT END OF TIME STEP   15, STRESS PERIOD   12
1
  VOLUMETRIC BUDGET FOR ENTIRE MODEL AT END OF TIME STEP   15, STRESS PERIOD  12
  ------------------------------------------------------------------------------

     CUMULATIVE VOLUMES      L**3       RATES FOR THIS TIME STEP      L**3/T
     ------------------                 ------------------------

           IN:                                      IN:
           ---                                      ---
             STORAGE     =   134889664.0000               STORAGE     =           2.4912
       CONSTANT HEAD     =           0.0000         CONSTANT HEAD     =           0.0000
               WELLS     =           0.0000                 WELLS     =           0.0000
     HEAD DEP BOUNDS     =     6514150.5000       HEAD DEP BOUNDS     =           0.2058
      STREAM LEAKAGE     =  1230876416.0000        STREAM LEAKAGE     =          37.8322
        UZF RECHARGE     =  1421748096.0000          UZF RECHARGE     =          35.6774
               GW ET     =           0.0000                 GW ET     =           0.0000
     SURFACE LEAKAGE     =           0.0000       SURFACE LEAKAGE     =           0.0000

                TOTAL IN =  2794028288.0000                  TOTAL IN =          76.2066

          OUT:                                     OUT:
          ----                                     ----
             STORAGE     =  1294285568.0000               STORAGE     =          41.8087
       CONSTANT HEAD     =           0.0000         CONSTANT HEAD     =           0.0000
               WELLS     =   394199936.0000                 WELLS     =           0.0000
     HEAD DEP BOUNDS     =     8954099.0000       HEAD DEP BOUNDS     =           0.2841
      STREAM LEAKAGE     =   266287296.0000        STREAM LEAKAGE     =           8.6977
        UZF RECHARGE     =           0.0000          UZF RECHARGE     =           0.0000
               GW ET     =   762645312.0000                 GW ET     =          25.4155
     SURFACE LEAKAGE     =    67618264.0000       SURFACE LEAKAGE     =           0.0000

               TOTAL OUT =  2793990400.0000                 TOTAL OUT =          76.2061

                IN - OUT =       37888.0000                  IN - OUT =       5.3406E-04

     PERCENT DISCREPANCY =           0.00         PERCENT DISCREPANCY =           0.00






         TIME SUMMARY AT END OF TIME STEP   15 IN STRESS PERIOD   12
                    SECONDS     MINUTES      HOURS       DAYS        YEARS
                    -----------------------------------------------------------
   TIME STEP LENGTH 3.14103E+05  5235.0      87.251      3.6354     9.95332E-03
 STRESS PERIOD TIME 2.62800E+06  43800.      730.00      30.417     8.32763E-02
         TOTAL TIME 3.15360E+07 5.25600E+05  8760.0      365.00     0.99932    
1

 Run end date and time (yyyy/mm/dd hh:mm:ss): 2020/03/03 10:56:54
 Elapsed run time:  2.481 Seconds

