                                  MODFLOW-NWT-SWR1 
      U.S. GEOLOGICAL SURVEY MODULAR FINITE-DIFFERENCE GROUNDWATER-FLOW MODEL
                             VERSION 1.1.4 4/01/2018
                    BASED ON MODFLOW-2005 VERSION 1.12.00 02/03/2017

 LIST FILE: .\Uzf_testoptions\UZFtestoptions.lst
                         UNIT    9

 OPENING .\Uzf_testoptions\UZFtestoptions.ba6
 FILE TYPE:BAS6   UNIT   75   STATUS:OLD    
 FORMAT:FORMATTED              ACCESS:SEQUENTIAL          

 OPENING .\Uzf_testoptions\UZFtestoptions.upw
 FILE TYPE:UPW   UNIT    7   STATUS:OLD    
 FORMAT:FORMATTED              ACCESS:SEQUENTIAL          

 OPENING .\Uzf_testoptions\UZFtestoptions.dis
 FILE TYPE:DIS   UNIT    8   STATUS:OLD    
 FORMAT:FORMATTED              ACCESS:SEQUENTIAL          

 OPENING .\Uzf_testoptions\UZFtestoptions.nwt
 FILE TYPE:NWT   UNIT   13   STATUS:OLD    
 FORMAT:FORMATTED              ACCESS:SEQUENTIAL          

 OPENING .\Uzf_testoptions\UZFtestoptions.oc
 FILE TYPE:OC   UNIT   14   STATUS:OLD    
 FORMAT:FORMATTED              ACCESS:SEQUENTIAL          

 OPENING .\Uzf_testoptions\UZFtestoptions.sfr
 FILE TYPE:SFR   UNIT   15   STATUS:OLD    
 FORMAT:FORMATTED              ACCESS:SEQUENTIAL          

 OPENING .\Uzf_testoptions\UZFtestoptions.wel
 FILE TYPE:WEL   UNIT   16   STATUS:OLD    
 FORMAT:FORMATTED              ACCESS:SEQUENTIAL          

 OPENING .\Uzf_testoptions\UZFtestoptions.ghb
 FILE TYPE:GHB   UNIT   17   STATUS:OLD    
 FORMAT:FORMATTED              ACCESS:SEQUENTIAL          

 OPENING .\Uzf_testoptions\UZFtestoptions.uzf
 FILE TYPE:UZF   UNIT   19   STATUS:OLD    
 FORMAT:FORMATTED              ACCESS:SEQUENTIAL          

 OPENING .\Uzf_testoptions\UZFtestoptions.gag
 FILE TYPE:GAGE   UNIT   32   STATUS:OLD    
 FORMAT:FORMATTED              ACCESS:SEQUENTIAL          

 OPENING .\Uzf_testoptions\UZFtestoptions.out
 FILE TYPE:DATA   UNIT   58   STATUS:UNKNOWN
 FORMAT:FORMATTED              ACCESS:SEQUENTIAL          

 OPENING .\Uzf_testoptions\UZFtestoptions.uzfot
 FILE TYPE:DATA(BINARY)   UNIT   61   STATUS:UNKNOWN
 FORMAT:BINARY                 ACCESS:SEQUENTIAL          

 OPENING .\Uzf_testoptions\netfluxin.unf
 FILE TYPE:DATA(BINARY)   UNIT  100   STATUS:UNKNOWN
 FORMAT:BINARY                 ACCESS:SEQUENTIAL          

 OPENING .\Uzf_testoptions\netfluxout.unf
 FILE TYPE:DATA(BINARY)   UNIT  101   STATUS:UNKNOWN
 FORMAT:BINARY                 ACCESS:SEQUENTIAL          

 OPENING .\Uzf_testoptions\UZFtestoptions.uzf1
 FILE TYPE:DATA   UNIT   65   STATUS:UNKNOWN
 FORMAT:FORMATTED              ACCESS:SEQUENTIAL          

 OPENING .\Uzf_testoptions\UZFtestoptions.uzf2
 FILE TYPE:DATA   UNIT   66   STATUS:UNKNOWN
 FORMAT:FORMATTED              ACCESS:SEQUENTIAL          

 OPENING .\Uzf_testoptions\UZFtestoptions.uzf3
 FILE TYPE:DATA   UNIT   67   STATUS:UNKNOWN
 FORMAT:FORMATTED              ACCESS:SEQUENTIAL          

 OPENING .\Uzf_testoptions\UZFtestoptions.uzf4
 FILE TYPE:DATA   UNIT   68   STATUS:UNKNOWN
 FORMAT:FORMATTED              ACCESS:SEQUENTIAL          

 OPENING .\Uzf_testoptions\UZFtestoptions.flw
 FILE TYPE:DATA   UNIT   81   STATUS:UNKNOWN
 FORMAT:FORMATTED              ACCESS:SEQUENTIAL          

 OPENING .\Uzf_testoptions\UZFtestoptions.sg1
 FILE TYPE:DATA   UNIT   83   STATUS:UNKNOWN
 FORMAT:FORMATTED              ACCESS:SEQUENTIAL          

 OPENING .\Uzf_testoptions\UZFtestoptions.sg2
 FILE TYPE:DATA   UNIT   84   STATUS:UNKNOWN
 FORMAT:FORMATTED              ACCESS:SEQUENTIAL          

 OPENING .\Uzf_testoptions\UZFtestoptions.sg3
 FILE TYPE:DATA   UNIT   85   STATUS:UNKNOWN
 FORMAT:FORMATTED              ACCESS:SEQUENTIAL          

 OPENING .\Uzf_testoptions\UZFtestoptions.sg4
 FILE TYPE:DATA   UNIT   86   STATUS:UNKNOWN
 FORMAT:FORMATTED              ACCESS:SEQUENTIAL          

 OPENING .\Uzf_testoptions\UZFtestoptions.sg5
 FILE TYPE:DATA   UNIT   87   STATUS:UNKNOWN
 FORMAT:FORMATTED              ACCESS:SEQUENTIAL          

 OPENING .\Uzf_testoptions\UZFtestoptions.sg6
 FILE TYPE:DATA   UNIT   88   STATUS:UNKNOWN
 FORMAT:FORMATTED              ACCESS:SEQUENTIAL          

 OPENING .\Uzf_testoptions\UZFtestoptions.sg7
 FILE TYPE:DATA   UNIT   89   STATUS:UNKNOWN
 FORMAT:FORMATTED              ACCESS:SEQUENTIAL          

 OPENING .\Uzf_testoptions\UZFtestoptions.sg8
 FILE TYPE:DATA   UNIT   90   STATUS:UNKNOWN
 FORMAT:FORMATTED              ACCESS:SEQUENTIAL          

 OPENING .\Uzf_testoptions\UZFtestoptions.sg9
 FILE TYPE:DATA   UNIT   91   STATUS:UNKNOWN
 FORMAT:FORMATTED              ACCESS:SEQUENTIAL          

 BAS -- BASIC PACKAGE, VERSION 1.1.4, 4/01/2018 INPUT READ FROM UNIT   75
 
 MODFLOW was compiled using mixed precision
 Precision of REAL variables:           6
 Precision of DOUBLE PRECISION variables:          15

 DISCRETIZATION INPUT DATA READ FROM UNIT    8
 #Test problem 2-- Discretization input
 #Example problem using the UZF1 Package
    1 LAYERS        15 ROWS        10 COLUMNS
   12 STRESS PERIOD(S) IN SIMULATION
 MODEL TIME UNIT IS SECONDS
 MODEL LENGTH UNIT IS FEET
  Confining bed flag for each layer:
   0

                     DELR =   5000.00    

                     DELC =   5000.00    



           TOP ELEVATION OF LAYER 1
 READING ON UNIT    8 WITH FORMAT: (10F7.0)            

            1           2           3           4           5           6           7           8           9          10
 ........................................................................................................................
   1    1105.       1105.       0.000       0.000       0.000       0.000       0.000       0.000       0.000       0.000    
   2    1105.       1095.       1105.       0.000       0.000       1100.       1100.       1110.       0.000       0.000    
   3    0.000       1100.       1085.       1080.       1078.       1076.       1073.       1090.       0.000       0.000    
   4    1110.       1100.       1090.       1085.       1076.       1080.       1080.       1070.       1100.       0.000    
   5    1110.       1100.       1085.       1080.       1078.       1074.       1077.       1066.       1075.       1080.    
   6    1105.       1095.       1080.       1077.       1073.       1069.       1070.       1063.       1085.       1095.    
   7    1105.       1090.       1075.       1072.       1070.       1065.       1065.       1069.       1090.       0.000    
   8    0.000       1080.       1070.       1068.       1063.       1060.       1063.       1067.       1090.       0.000    
   9    0.000       1075.       1065.       1062.       1058.       1052.       1055.       1065.       1090.       0.000    
  10    0.000       1070.       1060.       1055.       1046.       1046.       1044.       1060.       1088.       1100.    
  11    0.000       1055.       1050.       1045.       1041.       1042.       1040.       1050.       1075.       0.000    
  12    1027.       1028.       1028.       1032.       1032.       1033.       1032.       1040.       1060.       0.000    
  13    997.0       1004.       1008.       1014.       1020.       1027.       1032.       1038.       1050.       0.000    
  14    0.000       1030.       1040.       1045.       1050.       1050.       1050.       1050.       1044.       0.000    
  15    0.000       0.000       1080.       1080.       1080.       1080.       0.000       0.000       0.000       0.000    



             MODEL LAYER BOTTOM EL. FOR LAYER   1
 READING ON UNIT    8 WITH FORMAT: (10F7.0)            

            1           2           3           4           5           6           7           8           9          10
 ........................................................................................................................
   1    1000.       1000.       0.000       0.000       0.000       0.000       0.000       0.000       0.000       0.000    
   2    1000.       900.0       900.0       0.000       0.000       950.0       950.0       950.0       0.000       0.000    
   3    0.000       850.0       670.0       680.0       680.0       770.0       770.0       890.0       0.000       0.000    
   4    925.0       850.0       650.0       650.0       650.0       680.0       740.0       850.0       950.0       0.000    
   5    925.0       800.0       650.0       600.0       600.0       600.0       650.0       720.0       850.0       950.0    
   6    925.0       800.0       650.0       600.0       550.0       600.0       650.0       720.0       850.0       970.0    
   7    925.0       800.0       650.0       600.0       550.0       600.0       650.0       720.0       950.0       0.000    
   8    0.000       850.0       700.0       650.0       570.0       600.0       700.0       850.0       950.0       0.000    
   9    0.000       850.0       700.0       650.0       540.0       580.0       700.0       850.0       950.0       0.000    
  10    0.000       850.0       700.0       630.0       530.0       580.0       650.0       800.0       900.0       950.0    
  11    0.000       850.0       700.0       620.0       580.0       620.0       700.0       800.0       900.0       0.000    
  12    900.0       830.0       710.0       640.0       600.0       650.0       700.0       800.0       900.0       0.000    
  13    900.0       810.0       750.0       700.0       650.0       700.0       750.0       800.0       900.0       0.000    
  14    0.000       950.0       850.0       850.0       850.0       850.0       850.0       850.0       850.0       0.000    
  15    0.000       0.000       950.0       950.0       950.0       950.0       0.000       0.000       0.000       0.000    


 STRESS PERIOD     LENGTH       TIME STEPS     MULTIPLIER FOR DELT    SS FLAG
 ----------------------------------------------------------------------------
        1         2628000.          1                    1.000         SS
        2         2628000.         15                    1.100         TR
        3         2628000.         15                    1.100         TR
        4         2628000.         15                    1.100         TR
        5         2628000.         15                    1.100         TR
        6         2628000.         15                    1.100         TR
        7         2628000.         15                    1.100         TR
        8         2628000.         15                    1.100         TR
        9         2628000.         15                    1.100         TR
       10         2628000.         15                    1.100         TR
       11         2628000.         15                    1.100         TR
       12         2628000.         15                    1.100         TR

 COMBINED STEADY-STATE AND TRANSIENT SIMULATION



 
 #Test Simulation 2-- Example problem using the UZF1 Package                     
 #Modified from example Problem 1 of SFR1 documentation report                   
 THE FREE FORMAT OPTION HAS BEEN SELECTED



                     BOUNDARY ARRAY FOR LAYER   1
 READING ON UNIT   75 WITH FORMAT: (20I4)              

                1           2           3           4           5           6           7           8           9          10
 ............................................................................................................................
   1            1           1           0           0           0           0           0           0           0           0
   2            1           1           1           0           0           1           1           1           0           0
   3            0           1           1           1           1           1           1           1           0           0
   4            1           1           1           1           1           1           1           1           1           0
   5            1           1           1           1           1           1           1           1           1           1
   6            1           1           1           1           1           1           1           1           1           1
   7            1           1           1           1           1           1           1           1           1           0
   8            0           1           1           1           1           1           1           1           1           0
   9            0           1           1           1           1           1           1           1           1           0
  10            0           1           1           1           1           1           1           1           1           1
  11            0           1           1           1           1           1           1           1           1           0
  12            1           1           1           1           1           1           1           1           1           0
  13            1           1           1           1           1           1           1           1           1           0
  14            0           1           1           1           1           1           1           1           1           0
  15            0           0           1           1           1           1           0           0           0           0

 AQUIFER HEAD WILL BE SET TO   6999.0     AT ALL NO-FLOW NODES (IBOUND=0).



                       INITIAL HEAD FOR LAYER   1
 READING ON UNIT   75 WITH FORMAT: (10F8.0)            

            1           2           3           4           5           6           7           8           9          10
 ........................................................................................................................
   1    1093.       1089.       6999.       6999.       6999.       6999.       6999.       6999.       6999.       6999.    
   2    1090.       1087.       1081.       6999.       6999.       1072.       1071.       1071.       6999.       6999.    
   3    6999.       1079.       1078.       1074.       1072.       1071.       1069.       1068.       6999.       6999.    
   4    1069.       1071.       1070.       1067.       1065.       1064.       1064.       1066.       1066.       6999.    
   5    1065.       1064.       1063.       1062.       1061.       1061.       1060.       1062.       1066.       1068.    
   6    1060.       1058.       1057.       1056.       1056.       1057.       1057.       1059.       1062.       1066.    
   7    1056.       1053.       1052.       1051.       1051.       1052.       1053.       1055.       1056.       6999.    
   8    6999.       1046.       1046.       1046.       1046.       1046.       1048.       1050.       1050.       6999.    
   9    6999.       1039.       1039.       1039.       1040.       1041.       1042.       1043.       1044.       6999.    
  10    6999.       1031.       1032.       1033.       1034.       1035.       1037.       1038.       1039.       1042.    
  11    6999.       1021.       1023.       1027.       1029.       1030.       1032.       1034.       1036.       6999.    
  12    1001.       1009.       1015.       1020.       1023.       1026.       1029.       1030.       1034.       6999.    
  13    994.5      1000.0       1007.       1013.       1019.       1024.       1029.       1034.       1036.       6999.    
  14    6999.       1004.       1009.       1014.       1019.       1024.       1029.       1035.       1039.       6999.    
  15    6999.       6999.       1012.       1015.       1019.       1022.       6999.       6999.       6999.       6999.    

 OUTPUT CONTROL IS SPECIFIED ONLY AT TIME STEPS FOR WHICH OUTPUT IS DESIRED
 HEADS WILL BE SAVED WITH FORMAT: (10F10.3)           
 SAVED HEADS WILL BE LABELED
 HEAD PRINT FORMAT CODE IS   4    DRAWDOWN PRINT FORMAT CODE IS   0
 HEADS WILL BE SAVED ON UNIT   58    DRAWDOWNS WILL BE SAVED ON UNIT    0
 # NWT Input File
 # Test Problem 3 for MODFLOW-NWT
 #HEADTOL  FLUXTOL MAXITEROUT THICKFACT LINMETH IPRNWT IBOTAV OPTIONS DBDREDUCE DBDINCREASE DBDGAMMA MOMFACT BACKFLAG MAXBACKITER BACKTOL BACKREDUCE

 NWT1 -- Newton Solver, VERSION 1.1.4, 4/01/2018
         INPUT READ FROM UNIT 13

 SPECIFIED OPTION:
 SOLVER INPUT VALUES ARE SPECIFIED BY USER
 ***XMD linear solver will be used***
 
   CONVERGENCE CRITERION OF   0.100000E-03 FOR HEAD SOLUTION
   AND A TOLERANCE OF   0.100000E+03 FOR FLOW SOLUTION AND 
   A MAXIMUM OF   200 OUTER ITERATIONS. 


   D-B-D REDUCTION FACTOR OF    0.990000E+00 AND 
   A D-B-D INCREASE FACTOR OF    0.100000E-04 AND 
   A D-B-D RELAXATION OF    0.000000E+00 AND 
   A MOMENTUM FACTOR OF    0.100000E+00 .


 ***BACKTRACKING IS INACTIVE***
 XMD -- LINEAR SOLUTION BY XMD PACKAGE VERSION 1.30
     BY MOTOMU IBARAKI, OHIO STATE UNIVERSITY, COLOMBUS, OH
                 INPUT READ FROM UNIT 13
 ACCELERATION METHOD                    (IACL) =         2
 NODE ORDERING FLAG                   (NORDER) =         0
 LEVEL OF FILL                         (LEVEL) =         1
 MAXIMUM NUMBER OF ORTHOGONALIZATIONS  (NORTH) =        15
 INDEX FOR USING REDUCED SYSTEM      (IREDSYS) =         1
 RESID. REDUCTION CONVERGE CRITERION  (RRCTOL) =  0.000000E+00
 INDEX FOR USING DROP TOLERANCE     (IDROPTOL) =         1
 DROP TOLERANCE VALUE                  (EPSRN) =  0.500000E-02
 CONVERGENCE CRITERIA OF           (HCLOSEXMD) =  0.100000E-03
 MAX. NUMBER OF LINEAR ITERATIONS  (MXITERXMD) =        50


 UPW1 -- UPSTREAM WEIGHTING FLOW PACKAGE, VERSION 1.1.4, 4/01/2018
         INPUT READ FROM UNIT  7

 #Layer-Property Flow Package input for test simulation 2
 No named parameters

   LAYER FLAGS:
 LAYER       LAYTYP          LAYAVG    CHANI           LAYVKA           LAYWET
 ---------------------------------------------------------------------------
    1             1             0     1.000E+00             0             0

   INTERPRETATION OF LAYER FLAGS:
                        INTERBLOCK     HORIZONTAL    DATA IN
         LAYER TYPE   TRANSMISSIVITY   ANISOTROPY   ARRAY VKA   WETTABILITY
 LAYER   (LAYTYP)        (LAYAVG)      (CHANI)     (LAYVKA)       (LAYWET)
 ---------------------------------------------------------------------------
    1   CONVERTIBLE      HARMONIC     1.000E+00    VERTICAL K  NON-WETTABLE



              HYD. COND. ALONG ROWS FOR LAYER   1
 READING ON UNIT    7 WITH FORMAT: (10F5.0)            

            1           2           3           4           5           6           7           8           9          10
 ........................................................................................................................
   1   2.0000E-03  2.0000E-03   0.000       0.000       0.000       0.000       0.000       0.000       0.000       0.000    
   2   4.0000E-04  2.0000E-03  2.0000E-03   0.000       0.000      4.0000E-04  4.0000E-04  4.0000E-04   0.000       0.000    
   3    0.000      4.0000E-04  2.0000E-03  2.0000E-03  4.0000E-04  4.0000E-04  4.0000E-04  4.0000E-04   0.000       0.000    
   4   4.0000E-04  4.0000E-04  4.0000E-04  2.0000E-03  2.0000E-03  2.0000E-03  4.0000E-04  4.0000E-04  4.0000E-04   0.000    
   5   4.0000E-04  4.0000E-04  4.0000E-04  2.0000E-03  2.0000E-03  2.0000E-03  2.0000E-03  2.0000E-03  2.0000E-03  2.0000E-03
   6   4.0000E-04  4.0000E-04  4.0000E-04  2.0000E-03  2.0000E-03  2.0000E-03  2.0000E-03  2.0000E-03  4.0000E-04  4.0000E-04
   7   4.0000E-04  4.0000E-04  4.0000E-04  2.0000E-03  2.0000E-03  2.0000E-03  2.0000E-03  2.0000E-03  4.0000E-04   0.000    
   8    0.000      4.0000E-04  4.0000E-04  2.0000E-03  2.0000E-03  2.0000E-03  2.0000E-03  4.0000E-04  4.0000E-04   0.000    
   9    0.000      4.0000E-04  4.0000E-04  2.0000E-03  2.0000E-03  2.0000E-03  2.0000E-03  4.0000E-04  4.0000E-04   0.000    
  10    0.000      4.0000E-04  4.0000E-04  2.0000E-03  2.0000E-03  2.0000E-03  2.0000E-03  4.0000E-04  4.0000E-04  4.0000E-04
  11    0.000      4.0000E-04  4.0000E-04  2.0000E-03  2.0000E-03  2.0000E-03  2.0000E-03  4.0000E-04  4.0000E-04   0.000    
  12   4.0000E-04  4.0000E-04  2.0000E-03  2.0000E-03  2.0000E-03  2.0000E-03  2.0000E-03  4.0000E-04  4.0000E-04   0.000    
  13   2.0000E-03  2.0000E-03  2.0000E-03  2.0000E-03  2.0000E-03  2.0000E-03  2.0000E-03  2.0000E-03  2.0000E-03   0.000    
  14    0.000      4.0000E-04  4.0000E-04  4.0000E-04  4.0000E-04  4.0000E-04  4.0000E-04  4.0000E-04  2.0000E-03   0.000    
  15    0.000       0.000      4.0000E-04  4.0000E-04  4.0000E-04  4.0000E-04   0.000       0.000       0.000       0.000    

      VERTICAL HYD. COND. =  1.000000E-06 FOR LAYER   1

         SPECIFIC STORAGE =  1.000000E-06 FOR LAYER   1



                     SPECIFIC YIELD FOR LAYER   1
 READING ON UNIT    7 WITH FORMAT: (10F5.0)            

            1           2           3           4           5           6           7           8           9          10
 ........................................................................................................................
   1   0.2000      0.2000       0.000       0.000       0.000       0.000       0.000       0.000       0.000       0.000    
   2   0.1000      0.2000      0.2000       0.000       0.000      0.1000      0.1000      0.1000       0.000       0.000    
   3    0.000      0.1000      0.2000      0.2000      0.1000      0.1000      0.1000      0.1000       0.000       0.000    
   4   0.1000      0.1000      0.1000      0.2000      0.2000      0.2000      0.1000      0.1000      0.1000       0.000    
   5   0.1000      0.1000      0.1000      0.2000      0.2000      0.2000      0.2000      0.2000      0.2000      0.2000    
   6   0.1000      0.1000      0.1000      0.2000      0.2000      0.2000      0.2000      0.2000      0.1000      0.1000    
   7   0.1000      0.1000      0.1000      0.2000      0.2000      0.2000      0.2000      0.2000      0.1000       0.000    
   8    0.000      0.1000      0.1000      0.2000      0.2000      0.2000      0.2000      0.1000      0.1000       0.000    
   9    0.000      0.1000      0.1000      0.2000      0.2000      0.2000      0.2000      0.1000      0.1000       0.000    
  10    0.000      0.1000      0.1000      0.2000      0.2000      0.2000      0.2000      0.1000      0.1000      0.1000    
  11    0.000      0.1000      0.1000      0.2000      0.2000      0.2000      0.2000      0.1000      0.1000       0.000    
  12   0.1000      0.1000      0.2000      0.2000      0.2000      0.2000      0.2000      0.1000      0.1000       0.000    
  13   0.2000      0.2000      0.2000      0.2000      0.2000      0.2000      0.2000      0.2000      0.2000       0.000    
  14    0.000      0.1000      0.1000      0.1000      0.1000      0.1000      0.1000      0.1000      0.2000       0.000    
  15    0.000       0.000      0.1000      0.1000      0.1000      0.1000       0.000       0.000       0.000       0.000    

 WEL -- WELL PACKAGE FOR NWT VERSION 1.1.4,  4/01/2018 INPUT READ FROM UNIT   16
 #Well Package input for test simulation 2
 No named parameters
 MAXIMUM OF     10 ACTIVE WELLS AT ONE TIME
 CELL-BY-CELL FLOWS WILL BE PRINTED WHEN ICBCFL NOT 0
 No named parameters
  PHIRAMP WILL BE SET TO A DEFAULT VALUE OF 1.0E-5
  WELLS WITH REDUCED PUMPING WILL BE REPORTED TO THE MAIN LISTING FILE


     0 Well parameters

 GHB -- GENERAL-HEAD BOUNDARY PACKAGE, VERSION 7, 5/2/2005
         INPUT READ FROM UNIT   17
 No named parameters
 MAXIMUM OF      2 ACTIVE GHB CELLS AT ONE TIME
 CELL-BY-CELL FLOWS WILL BE PRINTED WHEN ICBCFL NOT 0


     0 GHB parameters

 SFR7 -- STREAMFLOW ROUTING PACKAGE, VERSION 1.0.5, 2012-04-05
         INPUT READ FROM UNIT  15
 #SFR2 Package input for Test Simulation 2
 No named parameters

 PROCESSING SFR2 OPTIONS
 
 
Stream loss will be calculated as a factor of the streambed hydraulic conductivity. Multiplication factor is equal to     0.1000000015E+00

 END PROCESSING SFR2 OPTIONS
 


 NUMBER OF STREAM REACHES IS   36

 NUMBER OF STREAM SEGMENTS IS    8

 NUMBER OF STREAM PARAMETERS IS    0

 NUMBER OF STREAM SEGMENTS DEFINED USING PARAMETERS IS              0

 MAXIMUM ERROR FOR STREAM LEAKAGE RATES IS  1.00E-06

 CONSTANT FOR MANNINGS EQUATION IS  1.4860E+00



 STREAM OUTPUT WILL BE WRITTEN TO FILE ON UNIT   81


   STREAM NETWORK DESCRIPTION: 

   LAYER    ROW    COL   SEGMENT   REACH     LENGTH
                          NUMBER   NUMBER    IN CELL        
   --------------------------------------------------
      1      1      1       1        1    4.5000E+03
      1      2      2       1        2    7.0000E+03
      1      3      3       1        3    6.0000E+03
      1      3      4       1        4    5.5500E+03
      1      4      5       2        1    6.5000E+03
      1      5      6       2        2    5.0000E+03
      1      6      6       2        3    5.0000E+03
      1      7      6       2        4    5.0000E+03
      1      8      6       2        5    5.0000E+03
      1      3      5       3        1    5.0000E+03
      1      3      6       3        2    5.0000E+03
      1      3      7       3        3    4.5000E+03
      1      4      8       3        4    6.0000E+03
      1      5      8       3        5    5.0000E+03
      1      6      8       3        6    2.0000E+03
      1      5     10       4        1    2.5000E+03
      1      5      9       4        2    5.0000E+03
      1      6      8       4        3    3.5000E+03
      1      6      8       5        1    4.0000E+03
      1      7      7       5        2    5.0000E+03
      1      8      7       5        3    3.5000E+03
      1      8      6       5        4    2.5000E+03
      1      9      6       6        1    5.0000E+03
      1     10      7       6        2    5.0000E+03
      1     11      7       6        3    5.0000E+03
      1     12      7       6        4    5.0000E+03
      1     13      7       6        5    2.0000E+03
      1     14      9       7        1    5.0000E+03
      1     13      8       7        2    5.5000E+03
      1     13      7       7        3    5.0000E+03
      1     13      6       8        1    5.0000E+03
      1     13      5       8        2    5.0000E+03
      1     13      4       8        3    5.0000E+03
      1     13      3       8        4    5.0000E+03
      1     13      2       8        5    5.0000E+03
      1     13      1       8        6    3.0000E+03




 UZF1 -- UNSATURATED FLOW PACKAGE, VERSION 1.4, 02/06/2012
         INPUT READ FROM UNIT 19
 #UZF Package input for test simulation 2
 No named parameters

 PROCESSING UZF OPTIONS
 
 
 INITIAL WATER CONTENT (THTI) WILL BE 
READ FOR THE FIRST SS OR TR STRESS PERIOD
 
 
 RESIDUAL WATER CONTENT (THTR) WILL BE 
READ AND USED FOR THE FIRST TRANSIENT STRESS 
PERIOD
 
  OUTPUT WILL BE WRITTEN TO NETRECH AND NETDIS FILES WITH UNIT NUMBERS        100       101, RESPECTIVELY
 
 A SQUARE ET FUNCTION WILL BE USED TO SIMULATE GW ET
 
 
INFILTRATION WILL BE REJECTED USING 
LAND SURFACE K
 
 
HYDRAULIC CONDUCTIVITY OF LAND SURFACE 
WILL BE READ
 

 END PROCESSING UZF OPTIONS



            AREAL EXTENT OF UZ FLOW
 READING ON UNIT   19 WITH FORMAT: (20I4)              

                1           2           3           4           5           6           7           8           9          10
 ............................................................................................................................
   1            1           1           0           0           0           0           0           0           0           0
   2            1           1           1           0           0           1           1           1           0           0
   3            0           1           1           1           1           1           1           1           0           0
   4            1           1           1           1           1           1           1           1           1           0
   5            1           1           1           1           1           1           1           1           1           1
   6            1           1           1           1           1           1           1           1           1           1
   7            1           1           1           1           1           1           1           1           1           0
   8            0           1           1           1           1           1           1           1           1           0
   9            0           1           1           1           1           1           1           1           1           0
  10            0           1           1           1           1           1           1           1           1           1
  11            0           1           1           1           1           1           1           1           1           0
  12            1           1           1           1           1           1           1           1           1           0
  13            1           1           1           1           1           1           1           1           1           0
  14            0           1           1           1           1           1           1           1           1           0
  15            0           0           1           1           1           1           0           0           0           0
 OPTION 1 -- RECHARGE IN UZF TO TOP LAYER ONLY 



            ROUTING OVERLAND RUNOFF
 READING ON UNIT   19 WITH FORMAT: (20I4)              

                1           2           3           4           5           6           7           8           9          10
 ............................................................................................................................
   1            1           1           0           0           0           0           0           0           0           0
   2            1           1           1           0           0           3           3           3           0           0
   3            0           1           1           1           3           3           3           3           0           0
   4            8           8           2           2           2           2           2           3           3           0
   5            8           8           8           8           2           2           2           3           4           4
   6            8           8           8           8           8           2           2           4           4           4
   7            8           8           8           8           8           2           5           5           5           0
   8            0           8           8           8           8           2           5           5           5           0
   9            0           8           8           8           8           6           6           6           6           0
  10            0           8           8           8           8           6           6           6           6           6
  11            0           8           8           8           8           8           6           6           7           0
  12            8           8           8           8           8           8           6           7           7           0
  13            8           8           8           8           8           8           7           7           7           0
  14            0           8           8           8           8           8           7           7           7           0
  15            0           0           8           8           8           8           0           0           0           0



               SATURATED VERTICAL K
 READING ON UNIT   19 WITH FORMAT: (10F4.0)            

            1           2           3           4           5           6           7           8           9          10
 ........................................................................................................................
   1   5.0000E-08  5.0000E-08   0.000       0.000       0.000       0.000       0.000       0.000       0.000       0.000    
   2   5.0000E-08  5.0000E-08  5.0000E-08   0.000       0.000      5.0000E-08  5.0000E-08  5.0000E-08   0.000       0.000    
   3    0.000      5.0000E-08  5.0000E-08  5.0000E-08  5.0000E-08  5.0000E-08  5.0000E-08  5.0000E-08   0.000       0.000    
   4   5.0000E-08  5.0000E-08  5.0000E-08  5.0000E-08  5.0000E-08  5.0000E-08  5.0000E-08  5.0000E-08  5.0000E-08   0.000    
   5   5.0000E-08  5.0000E-08  5.0000E-08  5.0000E-08  5.0000E-08  5.0000E-08  5.0000E-08  5.0000E-08  5.0000E-08  5.0000E-08
   6   5.0000E-08  5.0000E-08  5.0000E-08  5.0000E-08  5.0000E-08  5.0000E-08  5.0000E-08  5.0000E-08  5.0000E-08  5.0000E-08
   7   5.0000E-08  5.0000E-08  5.0000E-08  5.0000E-08  5.0000E-08  5.0000E-08  5.0000E-08  5.0000E-08  5.0000E-08   0.000    
   8    0.000      5.0000E-08  5.0000E-08  5.0000E-08  5.0000E-08  5.0000E-08  5.0000E-08  5.0000E-08  5.0000E-08   0.000    
   9    0.000      5.0000E-08  5.0000E-08  5.0000E-08  5.0000E-08  5.0000E-08  5.0000E-08  5.0000E-08  5.0000E-08   0.000    
  10    0.000      5.0000E-08  5.0000E-08  5.0000E-08  5.0000E-08  5.0000E-08  5.0000E-08  5.0000E-08  5.0000E-08  5.0000E-08
  11    0.000      5.0000E-08  5.0000E-08  5.0000E-08  5.0000E-08  5.0000E-08  5.0000E-08  5.0000E-08  5.0000E-08   0.000    
  12   5.0000E-08  5.0000E-08  5.0000E-08  5.0000E-08  5.0000E-08  5.0000E-08  5.0000E-08  5.0000E-08  5.0000E-08   0.000    
  13   5.0000E-08  5.0000E-08  5.0000E-08  5.0000E-08  5.0000E-08  5.0000E-08  5.0000E-08  5.0000E-08  5.0000E-08   0.000    
  14    0.000      5.0000E-08  5.0000E-08  5.0000E-08  5.0000E-08  5.0000E-08  5.0000E-08  5.0000E-08  5.0000E-08   0.000    
  15    0.000       0.000      5.0000E-08  5.0000E-08  5.0000E-08  5.0000E-08   0.000       0.000       0.000       0.000    



            LAND SURFACE VERTICAL K
 READING ON UNIT   19 WITH FORMAT: (10F4.0)            

            1           2           3           4           5           6           7           8           9          10
 ........................................................................................................................
   1   1.0000E-09  1.0000E-09   0.000       0.000       0.000       0.000       0.000       0.000       0.000       0.000    
   2   1.0000E-09  1.0000E-09  1.0000E-09   0.000       0.000      1.0000E-09  1.0000E-09  1.0000E-09   0.000       0.000    
   3    0.000      1.0000E-09  1.0000E-09  1.0000E-09  1.0000E-09  1.0000E-09  1.0000E-09  1.0000E-09   0.000       0.000    
   4   1.0000E-09  1.0000E-09  1.0000E-09  1.0000E-09  1.0000E-09  1.0000E-09  1.0000E-09  1.0000E-09  1.0000E-09   0.000    
   5   1.0000E-09  1.0000E-09  1.0000E-09  1.0000E-09  1.0000E-09  1.0000E-09  1.0000E-09  1.0000E-09  1.0000E-09  1.0000E-09
   6   1.0000E-09  1.0000E-09  1.0000E-09  1.0000E-09  1.0000E-09  1.0000E-09  1.0000E-09  1.0000E-09  1.0000E-09  1.0000E-09
   7   1.0000E-09  1.0000E-09  1.0000E-09  1.0000E-09  1.0000E-09  1.0000E-09  1.0000E-09  1.0000E-09  1.0000E-09   0.000    
   8    0.000      1.0000E-09  1.0000E-09  1.0000E-09  1.0000E-09  1.0000E-09  1.0000E-09  1.0000E-09  1.0000E-09   0.000    
   9    0.000      1.0000E-09  1.0000E-09  1.0000E-09  1.0000E-09  1.0000E-09  1.0000E-09  1.0000E-09  1.0000E-09   0.000    
  10    0.000      1.0000E-09  1.0000E-09  1.0000E-09  1.0000E-09  1.0000E-09  1.0000E-09  1.0000E-09  1.0000E-09  1.0000E-09
  11    0.000      1.0000E-09  1.0000E-09  1.0000E-09  1.0000E-09  1.0000E-09  1.0000E-09  1.0000E-09  1.0000E-09   0.000    
  12   1.0000E-09  1.0000E-09  1.0000E-09  1.0000E-09  1.0000E-09  1.0000E-09  1.0000E-09  1.0000E-09  1.0000E-09   0.000    
  13   1.0000E-09  1.0000E-09  1.0000E-09  1.0000E-09  1.0000E-09  1.0000E-09  1.0000E-09  1.0000E-09  1.0000E-09   0.000    
  14    0.000      1.0000E-09  1.0000E-09  1.0000E-09  1.0000E-09  1.0000E-09  1.0000E-09  1.0000E-09  1.0000E-09   0.000    
  15    0.000       0.000      1.0000E-09  1.0000E-09  1.0000E-09  1.0000E-09   0.000       0.000       0.000       0.000    

     BROOKS-COREY EPSILON =   3.50000    

  SATURATED WATER CONTENT =  0.300000    

   RESIDUAL WATER CONTENT =  5.000000E-02

    INITIAL WATER CONTENT =  6.000000E-02

UNSATURATED FLOW RESULTS WILL BE PRINTED TO SEPARATE FILES FOR SELECTED MODEL CELLS, AND TIME STEPS AS DEFINED BY OUTPUT CONTROL PACKAGE 

SELECTED MODEL CELLS ARE: 
 ROW NUMBER  COLUMN NUMBER  FORTRAN UNIT NUMBER  OUTPUT OPTION


       3             6                 65                 1
       6             3                 66                 2
      10             5                 67                 3
       0             0                 68                 4



   9 GAGING STATIONS WERE SPECIFIED.
     (Lakes are identified by a negative value of the Lake Number)
     RECORDS WILL BE WRITTEN TO SEPARATE OUTPUT FILES REPRESENTED BY FOLLOWING UNIT NUMBERS:

 Stream Gages:
  GAGE #   SEGMENT   REACH   UNIT   OUTTYPE
       1       1       4      83       1
       2       2       3      84       1
       3       3       5      85       1
       4       4       3      86       1
       5       5       4      87       4
       6       6       5      88       4
       7       7       3      89       4
       8       8       6      90       4
       9       3       1      91       5




1
                            STRESS PERIOD NO.    1, LENGTH =   2628000.    
                            -----------------------------------------------

                              NUMBER OF TIME STEPS =     1

                               MULTIPLIER FOR DELT =     1.000

                            INITIAL TIME STEP SIZE =   2628000.    

 WELL NO.  LAYER   ROW   COL   STRESS RATE         
 --------------------------------------------------
      1      1      6      4      -1.000    
      2      1      6      5      -1.000    
      3      1      7      4      -1.000    
      4      1      7      5      -1.000    
      5      1      8      4      -1.000    
      6      1      8      5      -1.000    
      7      1      9      4      -1.000    
      8      1      9      5      -1.000    
      9      1     10      4      -1.000    
     10      1     10      5      -1.000    

     10 WELLS

 BOUND. NO. LAYER   ROW   COL     STAGE      CONDUCTANCE         
 ----------------------------------------------------------------
      1      1     13      1       988.0          0.3800E-01
      2      1     14      9       1045.          0.3800E-01

      2 GHB CELLS



 CLASSIFICATION & COUNT OF STREAM SEGMENTS BASED ON SOURCE OF INFLOW:

                HEADWATER     DIVERSION     RECEIVES TRIBUTARY FLOW
                ---------     ---------     -----------------------
                     3              1               4



                    INPUT DATA FOR EACH STREAM SEGMENT
 ---------------------------------------------------------------------------------------------

 SEGMENT    SEG.     INFLOW   OVERLAND   STREAM    STREAM   ICALC  OUTFLOW  DIVERSION PRIORITY
    NO.    LENGTH     RATE     RUNOFF      ET       PPT.    METH.  TO SEG.  FROM SEG.    NO.

      1  2.305E+04 2.500E+01 0.000E+00 0.000E+00 0.000E+00    4        2        0        0
      2  2.650E+04 0.000E+00 0.000E+00 0.000E+00 0.000E+00    1        6        0        0
      3  2.750E+04 1.000E+01 0.000E+00 0.000E+00 0.000E+00    0        5        1        0
      4  1.100E+04 1.000E+01 0.000E+00 0.000E+00 0.000E+00    1        5        0        0
      5  1.500E+04 0.000E+00 0.000E+00 0.000E+00 0.000E+00    3        6        0        0
      6  2.200E+04 0.000E+00 0.000E+00 0.000E+00 0.000E+00    1        8        0        0
      7  1.550E+04 1.500E+02 0.000E+00 0.000E+00 0.000E+00    2        8        0        0
      8  2.800E+04 0.000E+00 0.000E+00 0.000E+00 0.000E+00    2        0        0        0


         STREAMBED PROPERTIES AND STREAM DIMENSIONS

 SEGMENT     BED HYD. COND.      BED THICKNESS     ELEV.-TOP OF BED     WIDTH OF STREAM     DEPTH OF STREAM    STREAM ROUGHNESS
    No.     UPPER     LOWER     UPPER     LOWER     UPPER     LOWER     UPPER     LOWER     UPPER     LOWER   CHANNEL      BANK

     1  3.000E-05 3.000E-05 3.000E+00 3.000E+00 1.095E+03 1.075E+03
     2  3.000E-05 3.000E-05 3.000E+00 3.000E+00 1.075E+03 1.050E+03 1.200E+01 1.200E+01                     3.000E-02
     3  3.000E-05 3.000E-05 2.000E+00 2.000E+00 1.075E+03 1.060E+03 1.000E+01 6.000E+00 2.000E+00 1.000E+00
     4  3.000E-05 3.000E-05 3.000E+00 3.000E+00 1.080E+03 1.060E+03 1.000E+01 1.000E+01                     3.000E-02
     5  3.000E-05 3.000E-05 3.000E+00 3.000E+00 1.060E+03 1.045E+03
     6  3.000E-05 3.000E-05 3.000E+00 3.000E+00 1.045E+03 1.025E+03 1.200E+01 1.200E+01                     3.000E-02
     7  6.000E-05 6.000E-05 3.000E+00 3.000E+00 1.040E+03 1.025E+03                                         2.500E-02 4.500E-02
     8  6.000E-05 6.000E-05 3.000E+00 3.000E+00 1.025E+03 9.900E+02                                         2.500E-02 4.500E-02

  EIGHT POINT CROSS-SECTION DATA FOR SEGMENTS WITH ICALC = 2
    X VALUES X VALUES START FROM LEFT SIDE LOOKING DOWNSTREAM

     SEGMENT NO.        X1        X2        X3        X4        X5        X6        X7        X8
            7      0.000E+00 1.000E+01 8.000E+01 1.000E+02 1.500E+02 1.700E+02 2.400E+02 2.500E+02
            8      0.000E+00 1.000E+01 8.000E+01 1.000E+02 1.500E+02 1.700E+02 2.400E+02 2.500E+02

    Z VALUES ARE RELATIVE TO STREAMBED ELEVATION

     SEGMENT NO.          Z1        Z2        Z3        Z4        Z5        Z6        Z7        Z8
            7      2.000E+01 1.300E+01 1.000E+01 2.000E+00 0.000E+00 1.000E+01 1.300E+01 2.000E+01
            8      2.500E+01 1.700E+01 1.300E+01 4.000E+00 0.000E+00 1.000E+01 1.600E+01 2.000E+01

 STREAMFLOW RELATION WITH DEPTH IS BASED ON EQUATION Q = CDPTH*(DEPTH)**FDPTH
 STREAMFLOW RELATION WITH WIDTH IS BASED ON EQUATION Q = AWDTH*(WIDTH)**BWDTH

 SEGMENT NO.      CDPTH     FDPTH    AWDTH     BWDTH

          5 3.000E-01 3.500E-01 3.800E+00 6.000E-01

 STREAMFLOW RELATION WITH DEPTH AND WIDTH IS BASED ON TABULATED VALUES

  SEGMENT NO.   STREAMFLOW       DEPTH       WIDTH

          1     5.0000E-01   2.5000E-01   3.0000E+00
          1     1.0000E+00   4.0000E-01   3.5000E+00
          1     2.0000E+00   5.5000E-01   4.2000E+00
          1     4.0000E+00   7.0000E-01   5.3000E+00
          1     7.0000E+00   8.0000E-01   7.0000E+00
          1     1.0000E+01   9.0000E-01   8.5000E+00
          1     2.0000E+01   1.1000E+00   1.2000E+01
          1     3.0000E+01   1.2500E+00   1.4000E+01
          1     5.0000E+01   1.4000E+00   1.7000E+01
          1     7.5000E+01   1.7000E+00   2.0000E+01
          1     1.0000E+02   1.8000E+00   2.2000E+01






            AREAL INFILTRATION RATE
 READING ON UNIT   19 WITH FORMAT: (10F4.0)            

            1           2           3           4           5           6           7           8           9          10
 ........................................................................................................................
   1   1.0000E-09  2.0000E-09   0.000       0.000       0.000       0.000       0.000       0.000       0.000       0.000    
   2   2.0000E-09  1.0000E-09  2.0000E-09   0.000       0.000      8.0000E-09  8.0000E-09  5.0000E-09   0.000       0.000    
   3    0.000      5.0000E-09  1.0000E-09  1.0000E-09  8.0000E-09  8.0000E-09  5.0000E-09  5.0000E-09   0.000       0.000    
   4   8.0000E-09  5.0000E-09  1.0000E-09  1.0000E-09  1.0000E-09  1.0000E-09  1.0000E-09  1.0000E-09  2.0000E-09   0.000    
   5   8.0000E-09  5.0000E-09  1.0000E-09  1.0000E-09  1.0000E-09  1.0000E-09  1.0000E-09  1.0000E-09  1.0000E-09  1.0000E-09
   6   8.0000E-09  5.0000E-09  5.0000E-09  2.0000E-09  2.0000E-09  1.0000E-09  1.0000E-09  1.0000E-09  1.0000E-09  5.0000E-09
   7   8.0000E-09  5.0000E-09  5.0000E-09  2.0000E-09  2.0000E-09  1.0000E-09  1.0000E-09  2.0000E-09  2.0000E-09   0.000    
   8    0.000      5.0000E-09  5.0000E-09  2.0000E-09  2.0000E-09  1.0000E-09  1.0000E-09  2.0000E-09  5.0000E-09   0.000    
   9    0.000      5.0000E-09  5.0000E-09  2.0000E-09  2.0000E-09  1.0000E-09  1.0000E-09  2.0000E-09  5.0000E-09   0.000    
  10    0.000      5.0000E-09  5.0000E-09  2.0000E-09  2.0000E-09  1.0000E-09  1.0000E-09  2.0000E-09  5.0000E-09  8.0000E-09
  11    0.000      1.0000E-09  1.0000E-09  1.0000E-09  1.0000E-09  1.0000E-09  1.0000E-09  2.0000E-09  5.0000E-09   0.000    
  12   1.0000E-09  1.0000E-09  1.0000E-09  1.0000E-09  1.0000E-09  1.0000E-09  1.0000E-09  1.0000E-09  2.0000E-09   0.000    
  13   1.0000E-09  1.0000E-09  2.0000E-09  2.0000E-09  2.0000E-09  2.0000E-09  2.0000E-09  1.0000E-09  1.0000E-09   0.000    
  14    0.000      2.0000E-09  5.0000E-09  5.0000E-09  5.0000E-09  5.0000E-09  5.0000E-09  2.0000E-09  1.0000E-09   0.000    
  15    0.000       0.000      8.0000E-09  8.0000E-09  8.0000E-09  8.0000E-09   0.000       0.000       0.000       0.000    

                  ET RATE =  1.000000E-08

      ET EXTINCTION DEPTH =   5.00000    



           EXTINCTION WATER CONTENT
 READING ON UNIT   19 WITH FORMAT: (10F4.0)            

            1           2           3           4           5           6           7           8           9          10
 ........................................................................................................................
   1   0.1000      0.1000       0.000       0.000       0.000       0.000       0.000       0.000       0.000       0.000    
   2   0.2000      0.1000      0.1000       0.000       0.000      0.2000      0.2000      0.2000       0.000       0.000    
   3    0.000      0.2000      0.1000      0.1000      0.2000      0.2000      0.2000      0.2000       0.000       0.000    
   4   0.2000      0.2000      0.2000      0.1000      0.1000      0.1000      0.2000      0.2000      0.2000      0.1000    
   5   0.2000      0.2000      0.2000      0.1000      0.1000      0.1000      0.1000      0.1000      0.1000      0.1000    
   6   0.2000      0.2000      0.2000      0.1000      0.1000      0.1000      0.1000      0.1000      0.2000      0.2000    
   7   0.2000      0.2000      0.2000      0.1000      0.1000      0.1000      0.1000      0.1000      0.2000       0.000    
   8    0.000      0.2000      0.2000      0.1000      0.1000      0.1000      0.1000      0.2000      0.2000       0.000    
   9    0.000      0.2000      0.2000      0.1000      0.1000      0.1000      0.1000      0.2000      0.2000       0.000    
  10    0.000      0.2000      0.2000      0.1000      0.1000      0.1000      0.1000      0.2000      0.2000      0.2000    
  11    0.000      0.2000      0.2000      0.1000      0.1000      0.1000      0.1000      0.2000      0.2000       0.000    
  12   0.2000      0.2000      0.1000      0.1000      0.1000      0.1000      0.1000      0.2000      0.2000       0.000    
  13   0.1000      0.1000      0.1000      0.1000      0.1000      0.1000      0.1000      0.1000      0.1000       0.000    
  14    0.000      0.2000      0.2000      0.2000      0.2000      0.2000      0.2000      0.2000      0.1000       0.000    
  15    0.000       0.000      0.2000      0.2000      0.2000      0.2000       0.000       0.000       0.000       0.000    
 
 SOLVING FOR HEAD 
                                                   Max.-Head-Change                         Max.-Flux-Residual
  Residual-Control   Outer-Iter.   Inner-Iter.     Column Row Layer    Maximum-Head-Change  Column Row Layer    Maximum-Flux-Residual          L2-NORM 
          0                 1           6             3    3     1      -0.2424820276E+02       4   13    1         0.3321665158E+01      0.9939164549E+01
          0                 2           6             1    1     1      -0.4214769112E+02       1   13    1        -0.8743777338E+01      0.1131728520E+02
          0                 3           6             5   13     1      -0.1337399061E+01       5   13    1        -0.2704616654E+01      0.2855169446E+01
          0                 4           5             5   14     1       0.2872930479E+00       5   13    1         0.1834153850E+00      0.2146506356E+00
          0                 5           5             5   14     1      -0.2269144246E-01       5   13    1        -0.1420567476E-01      0.1785412042E-01
          0                 6           4             5   14     1       0.1556534440E-02       5   13    1         0.9625785178E-03      0.1288755932E-02
          0                 7           1             5   14     1      -0.9476233171E-04       5   13    1        -0.5607600610E-04      0.7929865547E-04

    ------------------------------------------------
       NWT REQUIRED            7 OUTER ITERATIONS 
       AND A TOTAL OF         33 INNER ITERATIONS.
    ------------------------------------------------

 OUTPUT CONTROL FOR STRESS PERIOD    1   TIME STEP    1
    PRINT BUDGET
    SAVE BUDGET

            WELLS   PERIOD    1   STEP   1
 WELL      1   LAYER   1   ROW     6   COL     4   RATE    -1.00000    
 WELL      2   LAYER   1   ROW     6   COL     5   RATE    -1.00000    
 WELL      3   LAYER   1   ROW     7   COL     4   RATE    -1.00000    
 WELL      4   LAYER   1   ROW     7   COL     5   RATE    -1.00000    
 WELL      5   LAYER   1   ROW     8   COL     4   RATE    -1.00000    
 WELL      6   LAYER   1   ROW     8   COL     5   RATE    -1.00000    
 WELL      7   LAYER   1   ROW     9   COL     4   RATE    -1.00000    
 WELL      8   LAYER   1   ROW     9   COL     5   RATE    -1.00000    
 WELL      9   LAYER   1   ROW    10   COL     4   RATE    -1.00000    
 WELL     10   LAYER   1   ROW    10   COL     5   RATE    -1.00000    

  HEAD DEP BOUNDS   PERIOD    1   STEP     1
 BOUNDARY      1   LAYER   1   ROW    13   COL     1   RATE   -0.286437    
 BOUNDARY      2   LAYER   1   ROW    14   COL     9   RATE    0.293667    



 STREAM LISTING     PERIOD      1   STEP        1

 LAYER ROW COL. STREAM  RCH.  FLOW INTO     FLOW TO   FLOW OUT OF   OVRLND.     DIRECT     STREAM       STREAM     STREAM     STREAM   STREAMBED  STREAMBED
                SEG.NO.  NO.  STRM. RCH.    AQUIFER    STRM. RCH.    RUNOFF     PRECIP       ET          HEAD       DEPTH      WIDTH   CONDCTNC.   GRADIENT

   1    1    1     1     1    2.5000E+01  2.4523E-01   2.4789E+01  3.416E-02  0.000E+00  0.000E+00  1.09423E+03  1.179E+00  1.304E+01  5.869E-02  1.393E+00
   1    2    2     1     2    2.4789E+01  3.7953E-01   2.4463E+01  5.315E-02  0.000E+00  0.000E+00  1.08923E+03  1.175E+00  1.299E+01  9.091E-02  1.392E+00
   1    3    3     1     3    2.4463E+01  3.2343E-01   2.4185E+01  4.555E-02  0.000E+00  0.000E+00  1.08359E+03  1.170E+00  1.293E+01  7.756E-02  1.390E+00
   1    3    4     1     4    2.4185E+01  2.9763E-01   2.3929E+01  4.214E-02  0.000E+00  0.000E+00  1.07857E+03  1.166E+00  1.287E+01  7.144E-02  1.389E+00
   1    4    5     2     1    1.3929E+01  2.9988E-01   1.3629E+01  0.000E+00  0.000E+00  0.000E+00  1.07278E+03  8.447E-01  1.200E+01  7.800E-02  1.282E+00
   1    5    6     2     2    1.3629E+01  2.3009E-01   1.3399E+01  0.000E+00  0.000E+00  0.000E+00  1.06734E+03  8.349E-01  1.200E+01  6.000E-02  1.278E+00
   1    6    6     2     3    1.3399E+01  2.2958E-01   1.3170E+01  0.000E+00  0.000E+00  0.000E+00  1.06262E+03  8.263E-01  1.200E+01  6.000E-02  1.275E+00
   1    7    6     2     4    1.3170E+01  2.2906E-01   1.2941E+01  0.000E+00  0.000E+00  0.000E+00  1.05789E+03  8.177E-01  1.200E+01  6.000E-02  1.273E+00
   1    8    6     2     5    1.2941E+01  2.2855E-01   1.2712E+01  0.000E+00  0.000E+00  0.000E+00  1.05317E+03  8.091E-01  1.200E+01  6.000E-02  1.270E+00
   1    3    5     3     1    1.0000E+01  2.8252E-01   9.9038E+00  1.864E-01  0.000E+00  0.000E+00  1.07555E+03  1.909E+00  9.636E+00  7.227E-02  1.955E+00
   1    3    6     3     2    9.9038E+00  2.4905E-01   9.8412E+00  1.864E-01  0.000E+00  0.000E+00  1.07264E+03  1.727E+00  8.909E+00  6.682E-02  1.864E+00
   1    3    7     3     3    9.8412E+00  1.9718E-01   9.8117E+00  1.677E-01  0.000E+00  0.000E+00  1.06987E+03  1.555E+00  8.218E+00  5.547E-02  1.777E+00
   1    4    8     3     4    9.8117E+00  2.2567E-01   9.8097E+00  2.236E-01  0.000E+00  0.000E+00  1.06682E+03  1.364E+00  7.455E+00  6.709E-02  1.682E+00
   1    5    8     3     5    9.8097E+00  1.5790E-01   9.8381E+00  1.864E-01  0.000E+00  0.000E+00  1.06362E+03  1.164E+00  6.655E+00  4.991E-02  1.582E+00
   1    6    8     3     6    9.8381E+00  5.5980E-02   9.8567E+00  7.455E-02  0.000E+00  0.000E+00  1.06158E+03  1.036E+00  6.145E+00  1.844E-02  1.518E+00
   1    5   10     4     1    1.0000E+01  9.0930E-02   9.9318E+00  2.273E-02  0.000E+00  0.000E+00  1.07836E+03  6.372E-01  1.000E+01  2.500E-02  1.212E+00
   1    5    9     4     2    9.9318E+00  1.8166E-01   9.7956E+00  4.545E-02  0.000E+00  0.000E+00  1.07154E+03  6.333E-01  1.000E+01  5.000E-02  1.211E+00
   1    6    8     4     3    9.7956E+00  1.2701E-01   9.7004E+00  3.182E-02  0.000E+00  0.000E+00  1.06381E+03  6.288E-01  1.000E+01  3.500E-02  1.210E+00
   1    6    8     5     1    1.9557E+01  3.4654E-01   1.9257E+01  4.667E-02  0.000E+00  0.000E+00  1.05885E+03  8.470E-01  2.252E+01  9.008E-02  1.282E+00
   1    7    7     5     2    1.9257E+01  4.2810E-01   1.8887E+01  5.833E-02  0.000E+00  0.000E+00  1.05434E+03  8.419E-01  2.229E+01  1.114E-01  1.281E+00
   1    8    7     5     3    1.8887E+01  2.9634E-01   1.8632E+01  4.083E-02  0.000E+00  0.000E+00  1.05009E+03  8.370E-01  2.207E+01  7.723E-02  1.279E+00
   1    8    6     5     4    1.8632E+01  2.1000E-01   1.8451E+01  2.917E-02  0.000E+00  0.000E+00  1.04708E+03  8.336E-01  2.191E+01  5.478E-02  1.278E+00
   1    9    6     6     1    3.1163E+01  2.6349E-01   3.1002E+01  1.023E-01  0.000E+00  0.000E+00  1.04412E+03  1.391E+00  1.200E+01  6.000E-02  1.464E+00
   1   10    7     6     2    3.1002E+01  2.6323E-01   3.0841E+01  1.023E-01  0.000E+00  0.000E+00  1.03957E+03  1.387E+00  1.200E+01  6.000E-02  1.462E+00
   1   11    7     6     3    3.0841E+01  2.6297E-01   3.0680E+01  1.023E-01  0.000E+00  0.000E+00  1.03502E+03  1.383E+00  1.200E+01  6.000E-02  1.461E+00
   1   12    7     6     4    3.0680E+01  2.6271E-01   3.0520E+01  1.023E-01  0.000E+00  0.000E+00  1.03047E+03  1.378E+00  1.200E+01  6.000E-02  1.459E+00
   1   13    7     6     5    3.0520E+01  3.5785E-02   3.0525E+01  4.091E-02  0.000E+00  0.000E+00  1.02729E+03  1.376E+00  1.200E+01  2.400E-02  4.970E-01
   1   14    9     7     1    1.5000E+02  1.4522E+00   1.4864E+02  8.871E-02  0.000E+00  0.000E+00  1.03987E+03  2.288E+00  5.529E+01  5.593E-01  8.655E-01
   1   13    8     7     2    1.4864E+02  2.2496E+00   1.4648E+02  9.758E-02  0.000E+00  0.000E+00  1.03478E+03  2.278E+00  5.525E+01  6.147E-01  1.220E+00
   1   13    7     7     3    1.4648E+02  2.1728E+00   1.4440E+02  8.871E-02  0.000E+00  0.000E+00  1.02969E+03  2.267E+00  5.520E+01  5.583E-01  1.297E+00
   1   13    6     8     1    1.7493E+02  1.6279E+00   1.7390E+02  6.027E-01  0.000E+00  0.000E+00  1.02486E+03  2.981E+00  4.322E+01  4.404E-01  1.232E+00
   1   13    5     8     2    1.7390E+02  8.4637E-01   1.7366E+02  6.027E-01  0.000E+00  0.000E+00  1.01860E+03  2.977E+00  4.316E+01  4.398E-01  6.414E-01
   1   13    4     8     3    1.7366E+02 -1.4212E-01   1.7440E+02  6.027E-01  0.000E+00  0.000E+00  1.01235E+03  2.978E+00  4.318E+01  4.401E+00 -1.077E-02
   1   13    3     8     4    1.7440E+02 -2.4449E+00   1.7745E+02  6.027E-01  0.000E+00  0.000E+00  1.00612E+03  2.990E+00  4.336E+01  4.419E+00 -1.844E-01
   1   13    2     8     5    1.7745E+02 -2.1057E+00   1.8016E+02  6.027E-01  0.000E+00  0.000E+00  9.99884E+02  3.009E+00  4.363E+01  4.446E+00 -1.579E-01
   1   13    1     8     6    1.8016E+02 -1.7133E+00   1.8223E+02  3.616E-01  0.000E+00  0.000E+00  9.94899E+02  3.024E+00  4.384E+01  2.681E+00 -2.131E-01



 UBDSV3 SAVING "     NETRECHARGE" ON UNIT 100 AT TIME STEP  1, STRESS PERIOD   1
 UBDSV3 SAVING "    NETDISCHARGE" ON UNIT 101 AT TIME STEP  1, STRESS PERIOD   1
 UBDSV3 SAVING "           GW ET" ON UNIT  61 AT TIME STEP  1, STRESS PERIOD   1
 UBDSV3 SAVING "    UZF RECHARGE" ON UNIT  61 AT TIME STEP  1, STRESS PERIOD   1
 UBDSV3 SAVING " SURFACE LEAKAGE" ON UNIT  61 AT TIME STEP  1, STRESS PERIOD   1
 UBDSV3 SAVING "       HORT+DUNN" ON UNIT  61 AT TIME STEP  1, STRESS PERIOD   1
 UBDSV3 SAVING "  STORAGE CHANGE" ON UNIT  61 AT TIME STEP  1, STRESS PERIOD   1


UNSATURATED ZONE PACKAGE VOLUMETRIC BUDGET FOR  TIME STEP     1 STRESS PERIOD    1
  ------------------------------------------------------------------------------



     CUMULATIVE VOLUMES      L**3       RATES FOR THIS TIME STEP      L**3/T
     ------------------                 ------------------------

           IN:                                      IN:
           ---                                      ---
        INFILTRATION =     7621200.0000          INFILTRATION =           2.9000

          OUT:                                     OUT:
          ----                                     ----
              UZF ET =       0.0000E+00                UZF ET =       0.0000E+00
        UZF RECHARGE =     7621200.0000          UZF RECHARGE =           2.9000

            IN - OUT =       0.0000E+00              IN - OUT =       0.0000E+00

          STORAGE:                                 STORAGE:
          --------                                 --------
      STORAGE CHANGE =       0.0000E+00        STORAGE CHANGE =       0.0000E+00

 PERCENT DISCREPANCY IS DIFFERENCE BETWEEN IN-OUT MINUS CHANGE IN STORAGE
 DIVIDED BY THE AVERAGE OF IN AND OUT TIMES 100

 PERCENT DISCREPANCY =           0.00     PERCENT DISCREPANCY =           0.00






1
  VOLUMETRIC BUDGET FOR ENTIRE MODEL AT END OF TIME STEP    1, STRESS PERIOD   1
  ------------------------------------------------------------------------------

     CUMULATIVE VOLUMES      L**3       RATES FOR THIS TIME STEP      L**3/T
     ------------------                 ------------------------

           IN:                                      IN:
           ---                                      ---
             STORAGE =           0.0000               STORAGE =           0.0000
       CONSTANT HEAD =           0.0000         CONSTANT HEAD =           0.0000
               WELLS =           0.0000                 WELLS =           0.0000
     HEAD DEP BOUNDS =      771757.1875       HEAD DEP BOUNDS =           0.2937
      STREAM LEAKAGE =    38759968.0000        STREAM LEAKAGE =          14.7488
        UZF RECHARGE =     7621205.5000          UZF RECHARGE =           2.9000
               GW ET =           0.0000                 GW ET =           0.0000
     SURFACE LEAKAGE =           0.0000       SURFACE LEAKAGE =           0.0000

            TOTAL IN =    47152928.0000              TOTAL IN =          17.9425

          OUT:                                     OUT:
          ----                                     ----
             STORAGE =           0.0000               STORAGE =           0.0000
       CONSTANT HEAD =           0.0000         CONSTANT HEAD =           0.0000
               WELLS =    26280000.0000                 WELLS =          10.0000
     HEAD DEP BOUNDS =      752755.8750       HEAD DEP BOUNDS =           0.2864
      STREAM LEAKAGE =    16835130.0000        STREAM LEAKAGE =           6.4061
        UZF RECHARGE =           0.0000          UZF RECHARGE =           0.0000
               GW ET =     3285000.0000                 GW ET =           1.2500
     SURFACE LEAKAGE =           0.0000       SURFACE LEAKAGE =           0.0000

           TOTAL OUT =    47152888.0000             TOTAL OUT =          17.9425

            IN - OUT =          40.0000              IN - OUT =       1.5259E-05

 PERCENT DISCREPANCY =           0.00     PERCENT DISCREPANCY =           0.00






         TIME SUMMARY AT END OF TIME STEP    1 IN STRESS PERIOD    1
                    SECONDS     MINUTES      HOURS       DAYS        YEARS
                    -----------------------------------------------------------
   TIME STEP LENGTH 2.62800E+06  43800.      730.00      30.417     8.32763E-02
 STRESS PERIOD TIME 2.62800E+06  43800.      730.00      30.417     8.32763E-02
         TOTAL TIME 2.62800E+06  43800.      730.00      30.417     8.32763E-02
1
1
                            STRESS PERIOD NO.    2, LENGTH =   2628000.    
                            -----------------------------------------------

                              NUMBER OF TIME STEPS =    15

                               MULTIPLIER FOR DELT =     1.100

                            INITIAL TIME STEP SIZE =   82713.07    

 WELL NO.  LAYER   ROW   COL   STRESS RATE         
 --------------------------------------------------
      1      1      6      4      -4.000    
      2      1      6      5      -4.000    
      3      1      7      4      -4.000    
      4      1      7      5      -4.000    
      5      1      8      4      -4.000    
      6      1      8      5      -4.000    
      7      1      9      4      -4.000    
      8      1      9      5      -4.000    
      9      1     10      4      -4.000    
     10      1     10      5      -4.000    

     10 WELLS

 REUSING NON-PARAMETER GHB CELLS FROM LAST STRESS PERIOD

      2 GHB CELLS

 REUSING STREAM SEGMENT DATA FROM LAST STRESS PERIOD



            AREAL INFILTRATION RATE
 READING ON UNIT   19 WITH FORMAT: (10F4.0)            

            1           2           3           4           5           6           7           8           9          10
 ........................................................................................................................
   1   8.0000E-09  1.6000E-08   0.000       0.000       0.000       0.000       0.000       0.000       0.000       0.000    
   2   1.6000E-08  8.0000E-09  1.6000E-08   0.000       0.000      6.4000E-08  6.4000E-08  4.0000E-08   0.000       0.000    
   3    0.000      4.0000E-08  8.0000E-09  8.0000E-09  6.4000E-08  6.4000E-08  4.0000E-08  4.0000E-08   0.000       0.000    
   4   6.4000E-08  4.0000E-08  8.0000E-09  8.0000E-09  8.0000E-09  8.0000E-09  8.0000E-09  8.0000E-09  1.6000E-08   0.000    
   5   6.4000E-08  4.0000E-08  8.0000E-09  8.0000E-09  8.0000E-09  8.0000E-09  8.0000E-09  8.0000E-09  8.0000E-09  8.0000E-09
   6   6.4000E-08  4.0000E-08  4.0000E-08  1.6000E-08  1.6000E-08  8.0000E-09  8.0000E-09  8.0000E-09  8.0000E-09  4.0000E-08
   7   6.4000E-08  4.0000E-08  4.0000E-08  1.6000E-08  1.6000E-08  8.0000E-09  8.0000E-09  1.6000E-08  1.6000E-08   0.000    
   8    0.000      4.0000E-08  4.0000E-08  1.6000E-08  1.6000E-08  8.0000E-09  8.0000E-09  1.6000E-08  4.0000E-08   0.000    
   9    0.000      4.0000E-08  4.0000E-08  1.6000E-08  1.6000E-08  8.0000E-09  8.0000E-09  1.6000E-08  4.0000E-08   0.000    
  10    0.000      4.0000E-08  4.0000E-08  1.6000E-08  1.6000E-08  8.0000E-09  8.0000E-09  1.6000E-08  4.0000E-08  6.4000E-08
  11    0.000      8.0000E-09  8.0000E-09  8.0000E-09  8.0000E-09  8.0000E-09  8.0000E-09  1.6000E-08  4.0000E-08   0.000    
  12   8.0000E-09  8.0000E-09  8.0000E-09  8.0000E-09  8.0000E-09  8.0000E-09  8.0000E-09  8.0000E-09  1.6000E-08   0.000    
  13   8.0000E-09  8.0000E-09  1.6000E-08  1.6000E-08  1.6000E-08  1.6000E-08  1.6000E-08  8.0000E-09  8.0000E-09   0.000    
  14    0.000      1.6000E-08  4.0000E-08  4.0000E-08  4.0000E-08  4.0000E-08  4.0000E-08  1.6000E-08  8.0000E-09   0.000    
  15    0.000       0.000      6.4000E-08  6.4000E-08  6.4000E-08  6.4000E-08   0.000       0.000       0.000       0.000    

                  ET RATE =  5.000000E-08

 USING ET EXTINCTION DEPTH FROM PREVIOUS STRESS PERIOD. CURRENT PERIOD IS:       2

 USING EXTINCTION WATER CONTENT FROM PREVIOUS STRESS PERIOD. CURRENT PERIOD IS:       2
 
 SOLVING FOR HEAD 
                                                   Max.-Head-Change                         Max.-Flux-Residual
  Residual-Control   Outer-Iter.   Inner-Iter.     Column Row Layer    Maximum-Head-Change  Column Row Layer    Maximum-Flux-Residual          L2-NORM 
          0                 1           2             4    8     1      -0.5475155969E-01       4    9    1        -0.3024986820E+01      0.9649567524E+01
          0                 2           2             4    8     1       0.5425083071E-02       5    7    1         0.3024816637E+00      0.9646067413E+00
          0                 3           2             4    8     1      -0.4838232804E-03       5    7    1        -0.2722336299E-01      0.8680481808E-01
          0                 4           1             4    8     1       0.3840259947E-04       5    7    1         0.2180591861E-02      0.6952821206E-02

    ------------------------------------------------
       NWT REQUIRED            4 OUTER ITERATIONS 
       AND A TOTAL OF          7 INNER ITERATIONS.
    ------------------------------------------------

 OUTPUT CONTROL WAS SPECIFIED FOR A NONEXISTENT TIME STEP
 OR OUTPUT CONTROL DATA ARE NOT ENTERED IN ASCENDING ORDER
 OUTPUT CONTROL STRESS PERIOD    1   TIME STEP    5
 MODEL STRESS PERIOD    2   TIME STEP    1
 APPLYING THE SPECIFIED OUTPUT CONTROL TO THE CURRENT TIME STEP

 OUTPUT CONTROL FOR STRESS PERIOD    2   TIME STEP    1
    PRINT BUDGET
    SAVE BUDGET

            WELLS   PERIOD    2   STEP   1
 WELL      1   LAYER   1   ROW     6   COL     4   RATE    -4.00000    
 WELL      2   LAYER   1   ROW     6   COL     5   RATE    -4.00000    
 WELL      3   LAYER   1   ROW     7   COL     4   RATE    -4.00000    
 WELL      4   LAYER   1   ROW     7   COL     5   RATE    -4.00000    
 WELL      5   LAYER   1   ROW     8   COL     4   RATE    -4.00000    
 WELL      6   LAYER   1   ROW     8   COL     5   RATE    -4.00000    
 WELL      7   LAYER   1   ROW     9   COL     4   RATE    -4.00000    
 WELL      8   LAYER   1   ROW     9   COL     5   RATE    -4.00000    
 WELL      9   LAYER   1   ROW    10   COL     4   RATE    -4.00000    
 WELL     10   LAYER   1   ROW    10   COL     5   RATE    -4.00000    

  HEAD DEP BOUNDS   PERIOD    2   STEP     1
 BOUNDARY      1   LAYER   1   ROW    13   COL     1   RATE   -0.286266    
 BOUNDARY      2   LAYER   1   ROW    14   COL     9   RATE    0.293681    



 STREAM LISTING     PERIOD      2   STEP        1

 LAYER ROW COL. STREAM  RCH.  FLOW INTO     FLOW TO   FLOW OUT OF   OVRLND.     DIRECT     STREAM       STREAM     STREAM     STREAM   STREAMBED  STREAMBED
                SEG.NO.  NO.  STRM. RCH.    AQUIFER    STRM. RCH.    RUNOFF     PRECIP       ET          HEAD       DEPTH      WIDTH   CONDCTNC.   GRADIENT

   1    1    1     1     1    2.5000E+01  2.4641E-01   2.5300E+01  5.466E-01  0.000E+00  0.000E+00  1.09423E+03  1.182E+00  1.309E+01  5.891E-02  1.394E+00
   1    2    2     1     2    2.5300E+01  3.8602E-01   2.5765E+01  8.503E-01  0.000E+00  0.000E+00  1.08925E+03  1.188E+00  1.317E+01  9.217E-02  1.396E+00
   1    3    3     1     3    2.5765E+01  3.3348E-01   2.6160E+01  7.289E-01  0.000E+00  0.000E+00  1.08361E+03  1.194E+00  1.325E+01  7.951E-02  1.398E+00
   1    3    4     1     4    2.6160E+01  3.1058E-01   2.6524E+01  6.742E-01  0.000E+00  0.000E+00  1.07861E+03  1.200E+00  1.332E+01  7.395E-02  1.400E+00
   1    4    5     2     1    1.6524E+01  3.0774E-01   1.6731E+01  5.151E-01  0.000E+00  0.000E+00  1.07288E+03  9.454E-01  1.200E+01  7.800E-02  1.315E+00
   1    5    6     2     2    1.6731E+01  2.3710E-01   1.6890E+01  3.962E-01  0.000E+00  0.000E+00  1.06746E+03  9.517E-01  1.200E+01  6.000E-02  1.317E+00
   1    6    6     2     3    1.6890E+01  2.3742E-01   1.7049E+01  3.962E-01  0.000E+00  0.000E+00  1.06275E+03  9.571E-01  1.200E+01  6.000E-02  1.319E+00
   1    7    6     2     4    1.7049E+01  2.3775E-01   1.7207E+01  3.962E-01  0.000E+00  0.000E+00  1.05804E+03  9.624E-01  1.200E+01  6.000E-02  1.321E+00
   1    8    6     2     5    1.7207E+01  2.3807E-01   1.7365E+01  3.962E-01  0.000E+00  0.000E+00  1.05333E+03  9.678E-01  1.200E+01  6.000E-02  1.323E+00
   1    3    5     3     1    1.0000E+01  2.8252E-01   1.1527E+01  1.809E+00  0.000E+00  0.000E+00  1.07555E+03  1.909E+00  9.636E+00  7.227E-02  1.955E+00
   1    3    6     3     2    1.1527E+01  2.4905E-01   1.3087E+01  1.809E+00  0.000E+00  0.000E+00  1.07264E+03  1.727E+00  8.909E+00  6.682E-02  1.864E+00
   1    3    7     3     3    1.3087E+01  1.9718E-01   1.4518E+01  1.628E+00  0.000E+00  0.000E+00  1.06987E+03  1.555E+00  8.218E+00  5.547E-02  1.777E+00
   1    4    8     3     4    1.4518E+01  2.2567E-01   1.6463E+01  2.171E+00  0.000E+00  0.000E+00  1.06682E+03  1.364E+00  7.455E+00  6.709E-02  1.682E+00
   1    5    8     3     5    1.6463E+01  1.5790E-01   1.8114E+01  1.809E+00  0.000E+00  0.000E+00  1.06362E+03  1.164E+00  6.655E+00  4.991E-02  1.582E+00
   1    6    8     3     6    1.8114E+01  5.5980E-02   1.8782E+01  7.236E-01  0.000E+00  0.000E+00  1.06158E+03  1.036E+00  6.145E+00  1.844E-02  1.518E+00
   1    5   10     4     1    1.0000E+01  9.1101E-02   1.0290E+01  3.807E-01  0.000E+00  0.000E+00  1.07837E+03  6.440E-01  1.000E+01  2.500E-02  1.215E+00
   1    5    9     4     2    1.0290E+01  1.8302E-01   1.0868E+01  7.614E-01  0.000E+00  0.000E+00  1.07157E+03  6.604E-01  1.000E+01  5.000E-02  1.220E+00
   1    6    8     4     3    1.0868E+01  1.2875E-01   1.1272E+01  5.330E-01  0.000E+00  0.000E+00  1.06386E+03  6.787E-01  1.000E+01  3.500E-02  1.226E+00
   1    6    8     5     1    3.0054E+01  4.6791E-01   3.0239E+01  6.533E-01  0.000E+00  0.000E+00  1.05899E+03  9.882E-01  2.933E+01  1.173E-01  1.329E+00
   1    7    7     5     2    3.0239E+01  5.8765E-01   3.0468E+01  8.167E-01  0.000E+00  0.000E+00  1.05449E+03  9.906E-01  2.945E+01  1.473E-01  1.330E+00
   1    8    7     5     3    3.0468E+01  4.1316E-01   3.0627E+01  5.717E-01  0.000E+00  0.000E+00  1.05024E+03  9.928E-01  2.956E+01  1.035E-01  1.331E+00
   1    8    6     5     4    3.0627E+01  2.9601E-01   3.0739E+01  4.083E-01  0.000E+00  0.000E+00  1.04724E+03  9.943E-01  2.964E+01  7.411E-02  1.331E+00
   1    9    6     6     1    4.8105E+01  2.8918E-01   4.9111E+01  1.295E+00  0.000E+00  0.000E+00  1.04455E+03  1.820E+00  1.200E+01  6.000E-02  1.607E+00
   1   10    7     6     2    4.9111E+01  2.9053E-01   5.0116E+01  1.295E+00  0.000E+00  0.000E+00  1.04002E+03  1.842E+00  1.200E+01  6.000E-02  1.614E+00
   1   11    7     6     3    5.0116E+01  2.9187E-01   5.1119E+01  1.295E+00  0.000E+00  0.000E+00  1.03550E+03  1.864E+00  1.200E+01  6.000E-02  1.621E+00
   1   12    7     6     4    5.1119E+01  2.9319E-01   5.2122E+01  1.295E+00  0.000E+00  0.000E+00  1.03098E+03  1.887E+00  1.200E+01  6.000E-02  1.629E+00
   1   13    7     6     5    5.2122E+01  4.8415E-02   5.2591E+01  5.182E-01  0.000E+00  0.000E+00  1.02781E+03  1.903E+00  1.200E+01  2.400E-02  6.724E-01
   1   14    9     7     1    1.5000E+02  1.4544E+00   1.4976E+02  1.218E+00  0.000E+00  0.000E+00  1.03987E+03  2.291E+00  5.531E+01  5.594E-01  8.666E-01
   1   13    8     7     2    1.4976E+02  2.2573E+00   1.4885E+02  1.340E+00  0.000E+00  0.000E+00  1.03479E+03  2.288E+00  5.529E+01  6.152E-01  1.223E+00
   1   13    7     7     3    1.4885E+02  2.1845E+00   1.4788E+02  1.218E+00  0.000E+00  0.000E+00  1.02970E+03  2.283E+00  5.527E+01  5.590E-01  1.302E+00
   1   13    6     8     1    2.0047E+02  1.8025E+00   2.0518E+02  6.509E+00  0.000E+00  0.000E+00  1.02503E+03  3.154E+00  4.574E+01  4.661E-01  1.289E+00
   1   13    5     8     2    2.0518E+02  1.0092E+00   2.1068E+02  6.509E+00  0.000E+00  0.000E+00  1.01881E+03  3.184E+00  4.616E+01  4.704E-01  7.151E-01
   1   13    4     8     3    2.1068E+02  1.0445E-01   2.1708E+02  6.509E+00  0.000E+00  0.000E+00  1.01259E+03  3.218E+00  4.666E+01  4.754E-01  7.323E-02
   1   13    3     8     4    2.1708E+02 -1.3800E+00   2.2497E+02  6.509E+00  0.000E+00  0.000E+00  1.00638E+03  3.258E+00  4.723E+01  4.813E+00 -9.556E-02
   1   13    2     8     5    2.2497E+02 -9.0601E-01   2.3238E+02  6.509E+00  0.000E+00  0.000E+00  1.00017E+03  3.299E+00  4.784E+01  4.875E+00 -6.195E-02
   1   13    1     8     6    2.3238E+02 -9.6300E-01   2.3725E+02  3.905E+00  0.000E+00  0.000E+00  9.95207E+02  3.332E+00  4.832E+01  2.954E+00 -1.087E-01



 UBDSV3 SAVING "     NETRECHARGE" ON UNIT 100 AT TIME STEP  1, STRESS PERIOD   2
 UBDSV3 SAVING "    NETDISCHARGE" ON UNIT 101 AT TIME STEP  1, STRESS PERIOD   2
 UBDSV3 SAVING "           GW ET" ON UNIT  61 AT TIME STEP  1, STRESS PERIOD   2
 UBDSV3 SAVING "    UZF RECHARGE" ON UNIT  61 AT TIME STEP  1, STRESS PERIOD   2
 UBDSV3 SAVING " SURFACE LEAKAGE" ON UNIT  61 AT TIME STEP  1, STRESS PERIOD   2
 UBDSV3 SAVING "       HORT+DUNN" ON UNIT  61 AT TIME STEP  1, STRESS PERIOD   2
 UBDSV3 SAVING "  STORAGE CHANGE" ON UNIT  61 AT TIME STEP  1, STRESS PERIOD   2


UNSATURATED ZONE PACKAGE VOLUMETRIC BUDGET FOR  TIME STEP     1 STRESS PERIOD    2
  ------------------------------------------------------------------------------



     CUMULATIVE VOLUMES      L**3       RATES FOR THIS TIME STEP      L**3/T
     ------------------                 ------------------------

           IN:                                      IN:
           ---                                      ---
        INFILTRATION =     7861067.8926          INFILTRATION =           2.9000

          OUT:                                     OUT:
          ----                                     ----
              UZF ET =        1357.7708                UZF ET =           0.0164
        UZF RECHARGE =     7624208.3069          UZF RECHARGE =           0.0364

            IN - OUT =      235501.8149              IN - OUT =           2.8472

          STORAGE:                                 STORAGE:
          --------                                 --------
      STORAGE CHANGE =      235501.8195        STORAGE CHANGE =           2.8472

 PERCENT DISCREPANCY IS DIFFERENCE BETWEEN IN-OUT MINUS CHANGE IN STORAGE
 DIVIDED BY THE AVERAGE OF IN AND OUT TIMES 100

 PERCENT DISCREPANCY =           0.00     PERCENT DISCREPANCY =           0.00






1
  VOLUMETRIC BUDGET FOR ENTIRE MODEL AT END OF TIME STEP    1, STRESS PERIOD   2
  ------------------------------------------------------------------------------

     CUMULATIVE VOLUMES      L**3       RATES FOR THIS TIME STEP      L**3/T
     ------------------                 ------------------------

           IN:                                      IN:
           ---                                      ---
             STORAGE =     2835483.5000               STORAGE =          34.2810
       CONSTANT HEAD =           0.0000         CONSTANT HEAD =           0.0000
               WELLS =           0.0000                 WELLS =           0.0000
     HEAD DEP BOUNDS =      796048.5000       HEAD DEP BOUNDS =           0.2937
      STREAM LEAKAGE =    40074776.0000        STREAM LEAKAGE =          15.8960
        UZF RECHARGE =     7624214.0000          UZF RECHARGE =       3.6370E-02
               GW ET =           0.0000                 GW ET =           0.0000
     SURFACE LEAKAGE =           0.0000       SURFACE LEAKAGE =           0.0000

            TOTAL IN =    51330520.0000              TOTAL IN =          50.5070

          OUT:                                     OUT:
          ----                                     ----
             STORAGE =       59963.7617               STORAGE =           0.7250
       CONSTANT HEAD =           0.0000         CONSTANT HEAD =           0.0000
               WELLS =    29588522.0000                 WELLS =          40.0000
     HEAD DEP BOUNDS =      776433.8750       HEAD DEP BOUNDS =           0.2863
      STREAM LEAKAGE =    17103864.0000        STREAM LEAKAGE =           3.2490
        UZF RECHARGE =           0.0000          UZF RECHARGE =           0.0000
               GW ET =     3801837.5000                 GW ET =           6.2486
     SURFACE LEAKAGE =           0.0000       SURFACE LEAKAGE =           0.0000

           TOTAL OUT =    51330620.0000             TOTAL OUT =          50.5088

            IN - OUT =        -100.0000              IN - OUT =      -1.7357E-03

 PERCENT DISCREPANCY =          -0.00     PERCENT DISCREPANCY =          -0.00






         TIME SUMMARY AT END OF TIME STEP    1 IN STRESS PERIOD    2
                    SECONDS     MINUTES      HOURS       DAYS        YEARS
                    -----------------------------------------------------------
   TIME STEP LENGTH  82713.      1378.6      22.976     0.95733     2.62102E-03
 STRESS PERIOD TIME  82713.      1378.6      22.976     0.95733     2.62102E-03
         TOTAL TIME 2.71071E+06  45179.      752.98      31.374     8.58973E-02
1
 
 SOLVING FOR HEAD 
                                                   Max.-Head-Change                         Max.-Flux-Residual
  Residual-Control   Outer-Iter.   Inner-Iter.     Column Row Layer    Maximum-Head-Change  Column Row Layer    Maximum-Flux-Residual          L2-NORM 
          0                 1           2             4    8     1      -0.5998493559E-01       4    8    1        -0.3014372525E+01      0.9513342802E+01
          0                 2           2             4    8     1       0.5943942389E-02       4    8    1         0.3014360326E+00      0.9510016713E+00
          0                 3           2             4    8     1      -0.5300963277E-03       4    8    1        -0.2712925829E-01      0.8558184223E-01
          0                 4           1             4    8     1       0.4207543034E-04       4    8    1         0.2173054048E-02      0.6854894601E-02

    ------------------------------------------------
       NWT REQUIRED            4 OUTER ITERATIONS 
       AND A TOTAL OF          7 INNER ITERATIONS.
    ------------------------------------------------

 OUTPUT CONTROL WAS SPECIFIED FOR A NONEXISTENT TIME STEP
 OR OUTPUT CONTROL DATA ARE NOT ENTERED IN ASCENDING ORDER
 OUTPUT CONTROL STRESS PERIOD    1   TIME STEP   10
 MODEL STRESS PERIOD    2   TIME STEP    2
 APPLYING THE SPECIFIED OUTPUT CONTROL TO THE CURRENT TIME STEP

 OUTPUT CONTROL FOR STRESS PERIOD    2   TIME STEP    2
    PRINT BUDGET
    SAVE BUDGET

            WELLS   PERIOD    2   STEP   2
 WELL      1   LAYER   1   ROW     6   COL     4   RATE    -4.00000    
 WELL      2   LAYER   1   ROW     6   COL     5   RATE    -4.00000    
 WELL      3   LAYER   1   ROW     7   COL     4   RATE    -4.00000    
 WELL      4   LAYER   1   ROW     7   COL     5   RATE    -4.00000    
 WELL      5   LAYER   1   ROW     8   COL     4   RATE    -4.00000    
 WELL      6   LAYER   1   ROW     8   COL     5   RATE    -4.00000    
 WELL      7   LAYER   1   ROW     9   COL     4   RATE    -4.00000    
 WELL      8   LAYER   1   ROW     9   COL     5   RATE    -4.00000    
 WELL      9   LAYER   1   ROW    10   COL     4   RATE    -4.00000    
 WELL     10   LAYER   1   ROW    10   COL     5   RATE    -4.00000    

  HEAD DEP BOUNDS   PERIOD    2   STEP     2
 BOUNDARY      1   LAYER   1   ROW    13   COL     1   RATE   -0.286091    
 BOUNDARY      2   LAYER   1   ROW    14   COL     9   RATE    0.293697    



 STREAM LISTING     PERIOD      2   STEP        2

 LAYER ROW COL. STREAM  RCH.  FLOW INTO     FLOW TO   FLOW OUT OF   OVRLND.     DIRECT     STREAM       STREAM     STREAM     STREAM   STREAMBED  STREAMBED
                SEG.NO.  NO.  STRM. RCH.    AQUIFER    STRM. RCH.    RUNOFF     PRECIP       ET          HEAD       DEPTH      WIDTH   CONDCTNC.   GRADIENT

   1    1    1     1     1    2.5000E+01  2.4641E-01   2.5300E+01  5.466E-01  0.000E+00  0.000E+00  1.09423E+03  1.182E+00  1.309E+01  5.891E-02  1.394E+00
   1    2    2     1     2    2.5300E+01  3.8602E-01   2.5765E+01  8.503E-01  0.000E+00  0.000E+00  1.08925E+03  1.188E+00  1.317E+01  9.217E-02  1.396E+00
   1    3    3     1     3    2.5765E+01  3.3348E-01   2.6160E+01  7.289E-01  0.000E+00  0.000E+00  1.08361E+03  1.194E+00  1.325E+01  7.951E-02  1.398E+00
   1    3    4     1     4    2.6160E+01  3.1058E-01   2.6524E+01  6.742E-01  0.000E+00  0.000E+00  1.07861E+03  1.200E+00  1.332E+01  7.395E-02  1.400E+00
   1    4    5     2     1    1.6524E+01  3.0774E-01   1.6731E+01  5.151E-01  0.000E+00  0.000E+00  1.07288E+03  9.454E-01  1.200E+01  7.800E-02  1.315E+00
   1    5    6     2     2    1.6731E+01  2.3710E-01   1.6890E+01  3.962E-01  0.000E+00  0.000E+00  1.06746E+03  9.517E-01  1.200E+01  6.000E-02  1.317E+00
   1    6    6     2     3    1.6890E+01  2.3742E-01   1.7049E+01  3.962E-01  0.000E+00  0.000E+00  1.06275E+03  9.571E-01  1.200E+01  6.000E-02  1.319E+00
   1    7    6     2     4    1.7049E+01  2.3775E-01   1.7207E+01  3.962E-01  0.000E+00  0.000E+00  1.05804E+03  9.624E-01  1.200E+01  6.000E-02  1.321E+00
   1    8    6     2     5    1.7207E+01  2.3807E-01   1.7365E+01  3.962E-01  0.000E+00  0.000E+00  1.05333E+03  9.678E-01  1.200E+01  6.000E-02  1.323E+00
   1    3    5     3     1    1.0000E+01  2.8252E-01   1.1527E+01  1.809E+00  0.000E+00  0.000E+00  1.07555E+03  1.909E+00  9.636E+00  7.227E-02  1.955E+00
   1    3    6     3     2    1.1527E+01  2.4905E-01   1.3087E+01  1.809E+00  0.000E+00  0.000E+00  1.07264E+03  1.727E+00  8.909E+00  6.682E-02  1.864E+00
   1    3    7     3     3    1.3087E+01  1.9718E-01   1.4518E+01  1.628E+00  0.000E+00  0.000E+00  1.06987E+03  1.555E+00  8.218E+00  5.547E-02  1.777E+00
   1    4    8     3     4    1.4518E+01  2.2567E-01   1.6463E+01  2.171E+00  0.000E+00  0.000E+00  1.06682E+03  1.364E+00  7.455E+00  6.709E-02  1.682E+00
   1    5    8     3     5    1.6463E+01  1.5790E-01   1.8114E+01  1.809E+00  0.000E+00  0.000E+00  1.06362E+03  1.164E+00  6.655E+00  4.991E-02  1.582E+00
   1    6    8     3     6    1.8114E+01  5.5980E-02   1.8782E+01  7.236E-01  0.000E+00  0.000E+00  1.06158E+03  1.036E+00  6.145E+00  1.844E-02  1.518E+00
   1    5   10     4     1    1.0000E+01  9.1101E-02   1.0290E+01  3.807E-01  0.000E+00  0.000E+00  1.07837E+03  6.440E-01  1.000E+01  2.500E-02  1.215E+00
   1    5    9     4     2    1.0290E+01  1.8302E-01   1.0868E+01  7.614E-01  0.000E+00  0.000E+00  1.07157E+03  6.604E-01  1.000E+01  5.000E-02  1.220E+00
   1    6    8     4     3    1.0868E+01  1.2875E-01   1.1272E+01  5.330E-01  0.000E+00  0.000E+00  1.06386E+03  6.787E-01  1.000E+01  3.500E-02  1.226E+00
   1    6    8     5     1    3.0054E+01  4.6791E-01   3.0239E+01  6.533E-01  0.000E+00  0.000E+00  1.05899E+03  9.882E-01  2.933E+01  1.173E-01  1.329E+00
   1    7    7     5     2    3.0239E+01  5.8765E-01   3.0468E+01  8.167E-01  0.000E+00  0.000E+00  1.05449E+03  9.906E-01  2.945E+01  1.473E-01  1.330E+00
   1    8    7     5     3    3.0468E+01  4.1316E-01   3.0627E+01  5.717E-01  0.000E+00  0.000E+00  1.05024E+03  9.928E-01  2.956E+01  1.035E-01  1.331E+00
   1    8    6     5     4    3.0627E+01  2.9601E-01   3.0739E+01  4.083E-01  0.000E+00  0.000E+00  1.04724E+03  9.943E-01  2.964E+01  7.411E-02  1.331E+00
   1    9    6     6     1    4.8105E+01  2.8918E-01   4.9111E+01  1.295E+00  0.000E+00  0.000E+00  1.04455E+03  1.820E+00  1.200E+01  6.000E-02  1.607E+00
   1   10    7     6     2    4.9111E+01  2.9053E-01   5.0116E+01  1.295E+00  0.000E+00  0.000E+00  1.04002E+03  1.842E+00  1.200E+01  6.000E-02  1.614E+00
   1   11    7     6     3    5.0116E+01  2.9187E-01   5.1119E+01  1.295E+00  0.000E+00  0.000E+00  1.03550E+03  1.864E+00  1.200E+01  6.000E-02  1.621E+00
   1   12    7     6     4    5.1119E+01  2.9319E-01   5.2122E+01  1.295E+00  0.000E+00  0.000E+00  1.03098E+03  1.887E+00  1.200E+01  6.000E-02  1.629E+00
   1   13    7     6     5    5.2122E+01  4.8414E-02   5.2591E+01  5.182E-01  0.000E+00  0.000E+00  1.02781E+03  1.903E+00  1.200E+01  2.400E-02  6.724E-01
   1   14    9     7     1    1.5000E+02  1.4547E+00   1.4976E+02  1.218E+00  0.000E+00  0.000E+00  1.03987E+03  2.291E+00  5.531E+01  5.594E-01  8.667E-01
   1   13    8     7     2    1.4976E+02  2.2575E+00   1.4885E+02  1.340E+00  0.000E+00  0.000E+00  1.03479E+03  2.288E+00  5.529E+01  6.152E-01  1.223E+00
   1   13    7     7     3    1.4885E+02  2.1845E+00   1.4788E+02  1.218E+00  0.000E+00  0.000E+00  1.02970E+03  2.283E+00  5.527E+01  5.590E-01  1.302E+00
   1   13    6     8     1    2.0047E+02  1.8014E+00   2.0518E+02  6.509E+00  0.000E+00  0.000E+00  1.02503E+03  3.154E+00  4.574E+01  4.661E-01  1.288E+00
   1   13    5     8     2    2.0518E+02  1.0161E+00   2.1067E+02  6.509E+00  0.000E+00  0.000E+00  1.01881E+03  3.184E+00  4.616E+01  4.704E-01  7.200E-01
   1   13    4     8     3    2.1067E+02  1.1077E-01   2.1707E+02  6.509E+00  0.000E+00  0.000E+00  1.01259E+03  3.218E+00  4.666E+01  4.754E-01  7.766E-02
   1   13    3     8     4    2.1707E+02 -1.3823E+00   2.2496E+02  6.509E+00  0.000E+00  0.000E+00  1.00638E+03  3.258E+00  4.723E+01  4.813E+00 -9.573E-02
   1   13    2     8     5    2.2496E+02 -9.2024E-01   2.3239E+02  6.509E+00  0.000E+00  0.000E+00  1.00017E+03  3.299E+00  4.784E+01  4.875E+00 -6.292E-02
   1   13    1     8     6    2.3239E+02 -9.4940E-01   2.3724E+02  3.905E+00  0.000E+00  0.000E+00  9.95207E+02  3.332E+00  4.832E+01  2.954E+00 -1.071E-01



 UBDSV3 SAVING "     NETRECHARGE" ON UNIT 100 AT TIME STEP  2, STRESS PERIOD   2
 UBDSV3 SAVING "    NETDISCHARGE" ON UNIT 101 AT TIME STEP  2, STRESS PERIOD   2
 UBDSV3 SAVING "           GW ET" ON UNIT  61 AT TIME STEP  2, STRESS PERIOD   2
 UBDSV3 SAVING "    UZF RECHARGE" ON UNIT  61 AT TIME STEP  2, STRESS PERIOD   2
 UBDSV3 SAVING " SURFACE LEAKAGE" ON UNIT  61 AT TIME STEP  2, STRESS PERIOD   2
 UBDSV3 SAVING "       HORT+DUNN" ON UNIT  61 AT TIME STEP  2, STRESS PERIOD   2
 UBDSV3 SAVING "  STORAGE CHANGE" ON UNIT  61 AT TIME STEP  2, STRESS PERIOD   2


UNSATURATED ZONE PACKAGE VOLUMETRIC BUDGET FOR  TIME STEP     2 STRESS PERIOD    2
  ------------------------------------------------------------------------------



     CUMULATIVE VOLUMES      L**3       RATES FOR THIS TIME STEP      L**3/T
     ------------------                 ------------------------

           IN:                                      IN:
           ---                                      ---
        INFILTRATION =     8124922.6084          INFILTRATION =           2.9000

          OUT:                                     OUT:
          ----                                     ----
              UZF ET =        4477.0054                UZF ET =           0.0343
        UZF RECHARGE =     7627100.8953          UZF RECHARGE =           0.0318

            IN - OUT =      493344.7077              IN - OUT =           2.8339

          STORAGE:                                 STORAGE:
          --------                                 --------
      STORAGE CHANGE =      493344.6992        STORAGE CHANGE =           2.8339

 PERCENT DISCREPANCY IS DIFFERENCE BETWEEN IN-OUT MINUS CHANGE IN STORAGE
 DIVIDED BY THE AVERAGE OF IN AND OUT TIMES 100

 PERCENT DISCREPANCY =           0.00     PERCENT DISCREPANCY =           0.00






1
  VOLUMETRIC BUDGET FOR ENTIRE MODEL AT END OF TIME STEP    2, STRESS PERIOD   2
  ------------------------------------------------------------------------------

     CUMULATIVE VOLUMES      L**3       RATES FOR THIS TIME STEP      L**3/T
     ------------------                 ------------------------

           IN:                                      IN:
           ---                                      ---
             STORAGE =     5945613.0000               STORAGE =          34.1831
       CONSTANT HEAD =           0.0000         CONSTANT HEAD =           0.0000
               WELLS =           0.0000                 WELLS =           0.0000
     HEAD DEP BOUNDS =      822770.3750       HEAD DEP BOUNDS =           0.2937
      STREAM LEAKAGE =    41522208.0000        STREAM LEAKAGE =          15.9086
        UZF RECHARGE =     7627106.5000          UZF RECHARGE =       3.1792E-02
               GW ET =           0.0000                 GW ET =           0.0000
     SURFACE LEAKAGE =           0.0000       SURFACE LEAKAGE =           0.0000

            TOTAL IN =    55917700.0000              TOTAL IN =          50.4172

          OUT:                                     OUT:
          ----                                     ----
             STORAGE =      117638.3594               STORAGE =           0.6339
       CONSTANT HEAD =           0.0000         CONSTANT HEAD =           0.0000
               WELLS =    33227898.0000                 WELLS =          40.0000
     HEAD DEP BOUNDS =      802463.6875       HEAD DEP BOUNDS =           0.2861
      STREAM LEAKAGE =    17399738.0000        STREAM LEAKAGE =           3.2519
        UZF RECHARGE =           0.0000          UZF RECHARGE =           0.0000
               GW ET =     4370216.5000                 GW ET =           6.2470
     SURFACE LEAKAGE =           0.0000       SURFACE LEAKAGE =           0.0000

           TOTAL OUT =    55917952.0000             TOTAL OUT =          50.4189

            IN - OUT =        -252.0000              IN - OUT =      -1.7319E-03

 PERCENT DISCREPANCY =          -0.00     PERCENT DISCREPANCY =          -0.00






         TIME SUMMARY AT END OF TIME STEP    2 IN STRESS PERIOD    2
                    SECONDS     MINUTES      HOURS       DAYS        YEARS
                    -----------------------------------------------------------
   TIME STEP LENGTH  90984.      1516.4      25.273      1.0531     2.88312E-03
 STRESS PERIOD TIME 1.73697E+05  2895.0      48.249      2.0104     5.50414E-03
         TOTAL TIME 2.80170E+06  46695.      778.25      32.427     8.87804E-02
1
 
 SOLVING FOR HEAD 
                                                   Max.-Head-Change                         Max.-Flux-Residual
  Residual-Control   Outer-Iter.   Inner-Iter.     Column Row Layer    Maximum-Head-Change  Column Row Layer    Maximum-Flux-Residual          L2-NORM 
          0                 1           2             4    8     1      -0.6567989472E-01       4    8    1        -0.3002261238E+01      0.9371215664E+01
          0                 2           2             4    8     1       0.6508254657E-02       4    8    1         0.3002246439E+00      0.9368380441E+00
          0                 3           2             4    8     1      -0.5804232219E-03       4    8    1        -0.2702023585E-01      0.8430813985E-01
          0                 4           1             4    8     1       0.4607003599E-04       4    8    1         0.2164321336E-02      0.6752889928E-02

    ------------------------------------------------
       NWT REQUIRED            4 OUTER ITERATIONS 
       AND A TOTAL OF          7 INNER ITERATIONS.
    ------------------------------------------------

 OUTPUT CONTROL WAS SPECIFIED FOR A NONEXISTENT TIME STEP
 OR OUTPUT CONTROL DATA ARE NOT ENTERED IN ASCENDING ORDER
 OUTPUT CONTROL STRESS PERIOD    1   TIME STEP   15
 MODEL STRESS PERIOD    2   TIME STEP    3
 APPLYING THE SPECIFIED OUTPUT CONTROL TO THE CURRENT TIME STEP

 OUTPUT CONTROL FOR STRESS PERIOD    2   TIME STEP    3
    PRINT BUDGET
    PRINT HEAD FOR ALL LAYERS
    SAVE HEAD FOR ALL LAYERS
    SAVE BUDGET

            WELLS   PERIOD    2   STEP   3
 WELL      1   LAYER   1   ROW     6   COL     4   RATE    -4.00000    
 WELL      2   LAYER   1   ROW     6   COL     5   RATE    -4.00000    
 WELL      3   LAYER   1   ROW     7   COL     4   RATE    -4.00000    
 WELL      4   LAYER   1   ROW     7   COL     5   RATE    -4.00000    
 WELL      5   LAYER   1   ROW     8   COL     4   RATE    -4.00000    
 WELL      6   LAYER   1   ROW     8   COL     5   RATE    -4.00000    
 WELL      7   LAYER   1   ROW     9   COL     4   RATE    -4.00000    
 WELL      8   LAYER   1   ROW     9   COL     5   RATE    -4.00000    
 WELL      9   LAYER   1   ROW    10   COL     4   RATE    -4.00000    
 WELL     10   LAYER   1   ROW    10   COL     5   RATE    -4.00000    

  HEAD DEP BOUNDS   PERIOD    2   STEP     3
 BOUNDARY      1   LAYER   1   ROW    13   COL     1   RATE   -0.285911    
 BOUNDARY      2   LAYER   1   ROW    14   COL     9   RATE    0.293714    



 STREAM LISTING     PERIOD      2   STEP        3

 LAYER ROW COL. STREAM  RCH.  FLOW INTO     FLOW TO   FLOW OUT OF   OVRLND.     DIRECT     STREAM       STREAM     STREAM     STREAM   STREAMBED  STREAMBED
                SEG.NO.  NO.  STRM. RCH.    AQUIFER    STRM. RCH.    RUNOFF     PRECIP       ET          HEAD       DEPTH      WIDTH   CONDCTNC.   GRADIENT

   1    1    1     1     1    2.5000E+01  2.4641E-01   2.5300E+01  5.466E-01  0.000E+00  0.000E+00  1.09423E+03  1.182E+00  1.309E+01  5.891E-02  1.394E+00
   1    2    2     1     2    2.5300E+01  3.8602E-01   2.5765E+01  8.503E-01  0.000E+00  0.000E+00  1.08925E+03  1.188E+00  1.317E+01  9.217E-02  1.396E+00
   1    3    3     1     3    2.5765E+01  3.3348E-01   2.6160E+01  7.289E-01  0.000E+00  0.000E+00  1.08361E+03  1.194E+00  1.325E+01  7.951E-02  1.398E+00
   1    3    4     1     4    2.6160E+01  3.1058E-01   2.6524E+01  6.742E-01  0.000E+00  0.000E+00  1.07861E+03  1.200E+00  1.332E+01  7.395E-02  1.400E+00
   1    4    5     2     1    1.6524E+01  3.0774E-01   1.6731E+01  5.151E-01  0.000E+00  0.000E+00  1.07288E+03  9.454E-01  1.200E+01  7.800E-02  1.315E+00
   1    5    6     2     2    1.6731E+01  2.3710E-01   1.6890E+01  3.962E-01  0.000E+00  0.000E+00  1.06746E+03  9.517E-01  1.200E+01  6.000E-02  1.317E+00
   1    6    6     2     3    1.6890E+01  2.3742E-01   1.7049E+01  3.962E-01  0.000E+00  0.000E+00  1.06275E+03  9.571E-01  1.200E+01  6.000E-02  1.319E+00
   1    7    6     2     4    1.7049E+01  2.3775E-01   1.7207E+01  3.962E-01  0.000E+00  0.000E+00  1.05804E+03  9.624E-01  1.200E+01  6.000E-02  1.321E+00
   1    8    6     2     5    1.7207E+01  2.3807E-01   1.7365E+01  3.962E-01  0.000E+00  0.000E+00  1.05333E+03  9.678E-01  1.200E+01  6.000E-02  1.323E+00
   1    3    5     3     1    1.0000E+01  2.8252E-01   1.1527E+01  1.809E+00  0.000E+00  0.000E+00  1.07555E+03  1.909E+00  9.636E+00  7.227E-02  1.955E+00
   1    3    6     3     2    1.1527E+01  2.4905E-01   1.3087E+01  1.809E+00  0.000E+00  0.000E+00  1.07264E+03  1.727E+00  8.909E+00  6.682E-02  1.864E+00
   1    3    7     3     3    1.3087E+01  1.9718E-01   1.4518E+01  1.628E+00  0.000E+00  0.000E+00  1.06987E+03  1.555E+00  8.218E+00  5.547E-02  1.777E+00
   1    4    8     3     4    1.4518E+01  2.2567E-01   1.6463E+01  2.171E+00  0.000E+00  0.000E+00  1.06682E+03  1.364E+00  7.455E+00  6.709E-02  1.682E+00
   1    5    8     3     5    1.6463E+01  1.5790E-01   1.8114E+01  1.809E+00  0.000E+00  0.000E+00  1.06362E+03  1.164E+00  6.655E+00  4.991E-02  1.582E+00
   1    6    8     3     6    1.8114E+01  5.5980E-02   1.8782E+01  7.236E-01  0.000E+00  0.000E+00  1.06158E+03  1.036E+00  6.145E+00  1.844E-02  1.518E+00
   1    5   10     4     1    1.0000E+01  9.1101E-02   1.0290E+01  3.807E-01  0.000E+00  0.000E+00  1.07837E+03  6.440E-01  1.000E+01  2.500E-02  1.215E+00
   1    5    9     4     2    1.0290E+01  1.8302E-01   1.0868E+01  7.614E-01  0.000E+00  0.000E+00  1.07157E+03  6.604E-01  1.000E+01  5.000E-02  1.220E+00
   1    6    8     4     3    1.0868E+01  1.2875E-01   1.1272E+01  5.330E-01  0.000E+00  0.000E+00  1.06386E+03  6.787E-01  1.000E+01  3.500E-02  1.226E+00
   1    6    8     5     1    3.0054E+01  4.6791E-01   3.0239E+01  6.533E-01  0.000E+00  0.000E+00  1.05899E+03  9.882E-01  2.933E+01  1.173E-01  1.329E+00
   1    7    7     5     2    3.0239E+01  5.8765E-01   3.0468E+01  8.167E-01  0.000E+00  0.000E+00  1.05449E+03  9.906E-01  2.945E+01  1.473E-01  1.330E+00
   1    8    7     5     3    3.0468E+01  4.1316E-01   3.0627E+01  5.717E-01  0.000E+00  0.000E+00  1.05024E+03  9.928E-01  2.956E+01  1.035E-01  1.331E+00
   1    8    6     5     4    3.0627E+01  2.9601E-01   3.0739E+01  4.083E-01  0.000E+00  0.000E+00  1.04724E+03  9.943E-01  2.964E+01  7.411E-02  1.331E+00
   1    9    6     6     1    4.8105E+01  2.8918E-01   4.9111E+01  1.295E+00  0.000E+00  0.000E+00  1.04455E+03  1.820E+00  1.200E+01  6.000E-02  1.607E+00
   1   10    7     6     2    4.9111E+01  2.9053E-01   5.0116E+01  1.295E+00  0.000E+00  0.000E+00  1.04002E+03  1.842E+00  1.200E+01  6.000E-02  1.614E+00
   1   11    7     6     3    5.0116E+01  2.9187E-01   5.1119E+01  1.295E+00  0.000E+00  0.000E+00  1.03550E+03  1.864E+00  1.200E+01  6.000E-02  1.621E+00
   1   12    7     6     4    5.1119E+01  2.9319E-01   5.2122E+01  1.295E+00  0.000E+00  0.000E+00  1.03098E+03  1.887E+00  1.200E+01  6.000E-02  1.629E+00
   1   13    7     6     5    5.2122E+01  4.8413E-02   5.2591E+01  5.182E-01  0.000E+00  0.000E+00  1.02781E+03  1.903E+00  1.200E+01  2.400E-02  6.724E-01
   1   14    9     7     1    1.5000E+02  1.4549E+00   1.4976E+02  1.218E+00  0.000E+00  0.000E+00  1.03987E+03  2.291E+00  5.531E+01  5.594E-01  8.669E-01
   1   13    8     7     2    1.4976E+02  2.2577E+00   1.4884E+02  1.340E+00  0.000E+00  0.000E+00  1.03479E+03  2.288E+00  5.529E+01  6.152E-01  1.223E+00
   1   13    7     7     3    1.4884E+02  2.1844E+00   1.4788E+02  1.218E+00  0.000E+00  0.000E+00  1.02970E+03  2.283E+00  5.527E+01  5.590E-01  1.302E+00
   1   13    6     8     1    2.0047E+02  1.8004E+00   2.0518E+02  6.509E+00  0.000E+00  0.000E+00  1.02503E+03  3.154E+00  4.574E+01  4.661E-01  1.288E+00
   1   13    5     8     2    2.0518E+02  1.0234E+00   2.1066E+02  6.509E+00  0.000E+00  0.000E+00  1.01881E+03  3.184E+00  4.616E+01  4.704E-01  7.252E-01
   1   13    4     8     3    2.1066E+02  1.1748E-01   2.1705E+02  6.509E+00  0.000E+00  0.000E+00  1.01259E+03  3.218E+00  4.665E+01  4.754E-01  8.237E-02
   1   13    3     8     4    2.1705E+02 -1.3839E+00   2.2495E+02  6.509E+00  0.000E+00  0.000E+00  1.00638E+03  3.257E+00  4.723E+01  4.813E+00 -9.584E-02
   1   13    2     8     5    2.2495E+02 -9.3405E-01   2.3239E+02  6.509E+00  0.000E+00  0.000E+00  1.00017E+03  3.299E+00  4.784E+01  4.875E+00 -6.386E-02
   1   13    1     8     6    2.3239E+02 -9.3550E-01   2.3723E+02  3.905E+00  0.000E+00  0.000E+00  9.95207E+02  3.332E+00  4.832E+01  2.954E+00 -1.056E-01



 UBDSV3 SAVING "     NETRECHARGE" ON UNIT 100 AT TIME STEP  3, STRESS PERIOD   2
 UBDSV3 SAVING "    NETDISCHARGE" ON UNIT 101 AT TIME STEP  3, STRESS PERIOD   2
 UBDSV3 SAVING "           GW ET" ON UNIT  61 AT TIME STEP  3, STRESS PERIOD   2
 UBDSV3 SAVING "    UZF RECHARGE" ON UNIT  61 AT TIME STEP  3, STRESS PERIOD   2
 UBDSV3 SAVING " SURFACE LEAKAGE" ON UNIT  61 AT TIME STEP  3, STRESS PERIOD   2
 UBDSV3 SAVING "       HORT+DUNN" ON UNIT  61 AT TIME STEP  3, STRESS PERIOD   2
 UBDSV3 SAVING "  STORAGE CHANGE" ON UNIT  61 AT TIME STEP  3, STRESS PERIOD   2


UNSATURATED ZONE PACKAGE VOLUMETRIC BUDGET FOR  TIME STEP     3 STRESS PERIOD    2
  ------------------------------------------------------------------------------



     CUMULATIVE VOLUMES      L**3       RATES FOR THIS TIME STEP      L**3/T
     ------------------                 ------------------------

           IN:                                      IN:
           ---                                      ---
        INFILTRATION =     8415162.7930          INFILTRATION =           2.9000

          OUT:                                     OUT:
          ----                                     ----
              UZF ET =        9852.5700                UZF ET =           0.0537
        UZF RECHARGE =     7629971.4043          UZF RECHARGE =           0.0287

            IN - OUT =      775338.8186              IN - OUT =           2.8176

          STORAGE:                                 STORAGE:
          --------                                 --------
      STORAGE CHANGE =      775338.7965        STORAGE CHANGE =           2.8176

 PERCENT DISCREPANCY IS DIFFERENCE BETWEEN IN-OUT MINUS CHANGE IN STORAGE
 DIVIDED BY THE AVERAGE OF IN AND OUT TIMES 100

 PERCENT DISCREPANCY =           0.00     PERCENT DISCREPANCY =           0.00






1
              HEAD IN LAYER   1 AT END OF TIME STEP   3 IN STRESS PERIOD    2
  ---------------------------------------------------------------------------

           1       2       3       4       5       6       7       8       9      10
 ...................................................................................
   1  1032.68 1029.48 6999.00 6999.00 6999.00 6999.00 6999.00 6999.00 6999.00 6999.00
   2  1029.85 1025.52 1023.59 6999.00 6999.00 1022.26 1022.54 1022.70 6999.00 6999.00
   3  6999.00 1022.63 1021.53 1020.65 1020.66 1021.12 1021.79 1022.00 6999.00 6999.00
   4  1020.48 1020.61 1019.99 1019.25 1019.11 1019.17 1019.92 1021.35 1021.27 6999.00
   5  1019.60 1018.96 1018.31 1017.83 1017.99 1018.51 1018.99 1019.76 1020.64 1021.45
   6  1018.69 1017.75 1016.88 1016.09 1016.46 1017.77 1018.57 1019.43 1020.18 1021.43
   7  1018.04 1016.72 1015.82 1015.06 1015.61 1017.18 1018.24 1018.87 1019.93 6999.00
   8  6999.00 1015.71 1015.06 1014.42 1015.08 1016.77 1017.80 1018.74 1020.21 6999.00
   9  6999.00 1014.68 1014.43 1014.07 1014.84 1016.56 1017.63 1018.96 1021.06 6999.00
  10  6999.00 1013.51 1013.81 1014.02 1014.98 1016.82 1018.18 1019.86 1022.27 1023.12
  11  6999.00 1011.36 1012.56 1014.30 1015.77 1017.68 1019.54 1021.92 1024.81 6999.00
  12  1001.31 1006.48 1010.20 1013.35 1016.11 1019.03 1021.74 1025.97 1029.56 6999.00
  13   995.52 1000.37 1006.67 1012.35 1016.63 1021.17 1025.79 1031.12 1034.11 6999.00
  14  6999.00 1005.86 1008.70 1013.02 1017.20 1021.49 1026.62 1032.57 1037.27 6999.00
  15  6999.00 6999.00 1012.29 1014.78 1017.91 1020.70 6999.00 6999.00 6999.00 6999.00

 HEAD WILL BE SAVED ON UNIT   58 AT END OF TIME STEP    3, STRESS PERIOD    2
1
  VOLUMETRIC BUDGET FOR ENTIRE MODEL AT END OF TIME STEP    3, STRESS PERIOD   2
  ------------------------------------------------------------------------------

     CUMULATIVE VOLUMES      L**3       RATES FOR THIS TIME STEP      L**3/T
     ------------------                 ------------------------

           IN:                                      IN:
           ---                                      ---
             STORAGE =     9359449.0000               STORAGE =          34.1101
       CONSTANT HEAD =           0.0000         CONSTANT HEAD =           0.0000
               WELLS =           0.0000                 WELLS =           0.0000
     HEAD DEP BOUNDS =      852166.1250       HEAD DEP BOUNDS =           0.2937
      STREAM LEAKAGE =    43115724.0000        STREAM LEAKAGE =          15.9220
        UZF RECHARGE =     7629977.0000          UZF RECHARGE =       2.8681E-02
               GW ET =           0.0000                 GW ET =           0.0000
     SURFACE LEAKAGE =           0.0000       SURFACE LEAKAGE =           0.0000

            TOTAL IN =    60957316.0000              TOTAL IN =          50.3545

          OUT:                                     OUT:
          ----                                     ----
             STORAGE =      174844.4375               STORAGE =           0.5716
       CONSTANT HEAD =           0.0000         CONSTANT HEAD =           0.0000
               WELLS =    37231212.0000                 WELLS =          40.0000
     HEAD DEP BOUNDS =      831078.5000       HEAD DEP BOUNDS =           0.2859
      STREAM LEAKAGE =    17725348.0000        STREAM LEAKAGE =           3.2534
        UZF RECHARGE =           0.0000          UZF RECHARGE =           0.0000
               GW ET =     4995262.5000                 GW ET =           6.2453
     SURFACE LEAKAGE =           0.0000       SURFACE LEAKAGE =           0.0000

           TOTAL OUT =    60957748.0000             TOTAL OUT =          50.3562

            IN - OUT =        -432.0000              IN - OUT =      -1.7281E-03

 PERCENT DISCREPANCY =          -0.00     PERCENT DISCREPANCY =          -0.00






         TIME SUMMARY AT END OF TIME STEP    3 IN STRESS PERIOD    2
                    SECONDS     MINUTES      HOURS       DAYS        YEARS
                    -----------------------------------------------------------
   TIME STEP LENGTH 1.00083E+05  1668.0      27.801      1.1584     3.17143E-03
 STRESS PERIOD TIME 2.73780E+05  4563.0      76.050      3.1688     8.67557E-03
         TOTAL TIME 2.90178E+06  48363.      806.05      33.585     9.19519E-02
1
 
 SOLVING FOR HEAD 
                                                   Max.-Head-Change                         Max.-Flux-Residual
  Residual-Control   Outer-Iter.   Inner-Iter.     Column Row Layer    Maximum-Head-Change  Column Row Layer    Maximum-Flux-Residual          L2-NORM 
          0                 1           2             4    8     1      -0.7186713779E-01       4    8    1        -0.2988445034E+01      0.9223399802E+01
          0                 2           2             4    8     1       0.7121345241E-02       4    8    1         0.2988426918E+00      0.9221015568E+00
          0                 3           2             4    8     1      -0.6351003175E-03       4    8    1        -0.2689586337E-01      0.8298281948E-01
          0                 4           1             4    8     1       0.5040992988E-04       4    8    1         0.2154359053E-02      0.6646700805E-02

    ------------------------------------------------
       NWT REQUIRED            4 OUTER ITERATIONS 
       AND A TOTAL OF          7 INNER ITERATIONS.
    ------------------------------------------------

 OUTPUT CONTROL WAS SPECIFIED FOR A NONEXISTENT TIME STEP
 OR OUTPUT CONTROL DATA ARE NOT ENTERED IN ASCENDING ORDER
 OUTPUT CONTROL STRESS PERIOD    2   TIME STEP    1
 MODEL STRESS PERIOD    2   TIME STEP    4
 APPLYING THE SPECIFIED OUTPUT CONTROL TO THE CURRENT TIME STEP

 OUTPUT CONTROL FOR STRESS PERIOD    2   TIME STEP    4
    PRINT BUDGET
    SAVE BUDGET

            WELLS   PERIOD    2   STEP   4
 WELL      1   LAYER   1   ROW     6   COL     4   RATE    -4.00000    
 WELL      2   LAYER   1   ROW     6   COL     5   RATE    -4.00000    
 WELL      3   LAYER   1   ROW     7   COL     4   RATE    -4.00000    
 WELL      4   LAYER   1   ROW     7   COL     5   RATE    -4.00000    
 WELL      5   LAYER   1   ROW     8   COL     4   RATE    -4.00000    
 WELL      6   LAYER   1   ROW     8   COL     5   RATE    -4.00000    
 WELL      7   LAYER   1   ROW     9   COL     4   RATE    -4.00000    
 WELL      8   LAYER   1   ROW     9   COL     5   RATE    -4.00000    
 WELL      9   LAYER   1   ROW    10   COL     4   RATE    -4.00000    
 WELL     10   LAYER   1   ROW    10   COL     5   RATE    -4.00000    

  HEAD DEP BOUNDS   PERIOD    2   STEP     4
 BOUNDARY      1   LAYER   1   ROW    13   COL     1   RATE   -0.285729    
 BOUNDARY      2   LAYER   1   ROW    14   COL     9   RATE    0.293733    



 STREAM LISTING     PERIOD      2   STEP        4

 LAYER ROW COL. STREAM  RCH.  FLOW INTO     FLOW TO   FLOW OUT OF   OVRLND.     DIRECT     STREAM       STREAM     STREAM     STREAM   STREAMBED  STREAMBED
                SEG.NO.  NO.  STRM. RCH.    AQUIFER    STRM. RCH.    RUNOFF     PRECIP       ET          HEAD       DEPTH      WIDTH   CONDCTNC.   GRADIENT

   1    1    1     1     1    2.5000E+01  2.4641E-01   2.5300E+01  5.466E-01  0.000E+00  0.000E+00  1.09423E+03  1.182E+00  1.309E+01  5.891E-02  1.394E+00
   1    2    2     1     2    2.5300E+01  3.8602E-01   2.5765E+01  8.503E-01  0.000E+00  0.000E+00  1.08925E+03  1.188E+00  1.317E+01  9.217E-02  1.396E+00
   1    3    3     1     3    2.5765E+01  3.3348E-01   2.6160E+01  7.289E-01  0.000E+00  0.000E+00  1.08361E+03  1.194E+00  1.325E+01  7.951E-02  1.398E+00
   1    3    4     1     4    2.6160E+01  3.1058E-01   2.6524E+01  6.742E-01  0.000E+00  0.000E+00  1.07861E+03  1.200E+00  1.332E+01  7.395E-02  1.400E+00
   1    4    5     2     1    1.6524E+01  3.0774E-01   1.6731E+01  5.151E-01  0.000E+00  0.000E+00  1.07288E+03  9.454E-01  1.200E+01  7.800E-02  1.315E+00
   1    5    6     2     2    1.6731E+01  2.3710E-01   1.6890E+01  3.962E-01  0.000E+00  0.000E+00  1.06746E+03  9.517E-01  1.200E+01  6.000E-02  1.317E+00
   1    6    6     2     3    1.6890E+01  2.3742E-01   1.7049E+01  3.962E-01  0.000E+00  0.000E+00  1.06275E+03  9.571E-01  1.200E+01  6.000E-02  1.319E+00
   1    7    6     2     4    1.7049E+01  2.3775E-01   1.7207E+01  3.962E-01  0.000E+00  0.000E+00  1.05804E+03  9.624E-01  1.200E+01  6.000E-02  1.321E+00
   1    8    6     2     5    1.7207E+01  2.3807E-01   1.7365E+01  3.962E-01  0.000E+00  0.000E+00  1.05333E+03  9.678E-01  1.200E+01  6.000E-02  1.323E+00
   1    3    5     3     1    1.0000E+01  2.8252E-01   1.1527E+01  1.809E+00  0.000E+00  0.000E+00  1.07555E+03  1.909E+00  9.636E+00  7.227E-02  1.955E+00
   1    3    6     3     2    1.1527E+01  2.4905E-01   1.3087E+01  1.809E+00  0.000E+00  0.000E+00  1.07264E+03  1.727E+00  8.909E+00  6.682E-02  1.864E+00
   1    3    7     3     3    1.3087E+01  1.9718E-01   1.4518E+01  1.628E+00  0.000E+00  0.000E+00  1.06987E+03  1.555E+00  8.218E+00  5.547E-02  1.777E+00
   1    4    8     3     4    1.4518E+01  2.2567E-01   1.6463E+01  2.171E+00  0.000E+00  0.000E+00  1.06682E+03  1.364E+00  7.455E+00  6.709E-02  1.682E+00
   1    5    8     3     5    1.6463E+01  1.5790E-01   1.8114E+01  1.809E+00  0.000E+00  0.000E+00  1.06362E+03  1.164E+00  6.655E+00  4.991E-02  1.582E+00
   1    6    8     3     6    1.8114E+01  5.5980E-02   1.8782E+01  7.236E-01  0.000E+00  0.000E+00  1.06158E+03  1.036E+00  6.145E+00  1.844E-02  1.518E+00
   1    5   10     4     1    1.0000E+01  9.1101E-02   1.0290E+01  3.807E-01  0.000E+00  0.000E+00  1.07837E+03  6.440E-01  1.000E+01  2.500E-02  1.215E+00
   1    5    9     4     2    1.0290E+01  1.8302E-01   1.0868E+01  7.614E-01  0.000E+00  0.000E+00  1.07157E+03  6.604E-01  1.000E+01  5.000E-02  1.220E+00
   1    6    8     4     3    1.0868E+01  1.2875E-01   1.1272E+01  5.330E-01  0.000E+00  0.000E+00  1.06386E+03  6.787E-01  1.000E+01  3.500E-02  1.226E+00
   1    6    8     5     1    3.0054E+01  4.6791E-01   3.0239E+01  6.533E-01  0.000E+00  0.000E+00  1.05899E+03  9.882E-01  2.933E+01  1.173E-01  1.329E+00
   1    7    7     5     2    3.0239E+01  5.8765E-01   3.0468E+01  8.167E-01  0.000E+00  0.000E+00  1.05449E+03  9.906E-01  2.945E+01  1.473E-01  1.330E+00
   1    8    7     5     3    3.0468E+01  4.1316E-01   3.0627E+01  5.717E-01  0.000E+00  0.000E+00  1.05024E+03  9.928E-01  2.956E+01  1.035E-01  1.331E+00
   1    8    6     5     4    3.0627E+01  2.9601E-01   3.0739E+01  4.083E-01  0.000E+00  0.000E+00  1.04724E+03  9.943E-01  2.964E+01  7.411E-02  1.331E+00
   1    9    6     6     1    4.8105E+01  2.8918E-01   4.9111E+01  1.295E+00  0.000E+00  0.000E+00  1.04455E+03  1.820E+00  1.200E+01  6.000E-02  1.607E+00
   1   10    7     6     2    4.9111E+01  2.9053E-01   5.0116E+01  1.295E+00  0.000E+00  0.000E+00  1.04002E+03  1.842E+00  1.200E+01  6.000E-02  1.614E+00
   1   11    7     6     3    5.0116E+01  2.9187E-01   5.1119E+01  1.295E+00  0.000E+00  0.000E+00  1.03550E+03  1.864E+00  1.200E+01  6.000E-02  1.621E+00
   1   12    7     6     4    5.1119E+01  2.9319E-01   5.2122E+01  1.295E+00  0.000E+00  0.000E+00  1.03098E+03  1.887E+00  1.200E+01  6.000E-02  1.629E+00
   1   13    7     6     5    5.2122E+01  4.8411E-02   5.2591E+01  5.182E-01  0.000E+00  0.000E+00  1.02781E+03  1.903E+00  1.200E+01  2.400E-02  6.724E-01
   1   14    9     7     1    1.5000E+02  1.4552E+00   1.4976E+02  1.218E+00  0.000E+00  0.000E+00  1.03987E+03  2.291E+00  5.531E+01  5.594E-01  8.670E-01
   1   13    8     7     2    1.4976E+02  2.2579E+00   1.4884E+02  1.340E+00  0.000E+00  0.000E+00  1.03479E+03  2.288E+00  5.529E+01  6.152E-01  1.223E+00
   1   13    7     7     3    1.4884E+02  2.1844E+00   1.4788E+02  1.218E+00  0.000E+00  0.000E+00  1.02970E+03  2.283E+00  5.527E+01  5.590E-01  1.302E+00
   1   13    6     8     1    2.0047E+02  1.7995E+00   2.0518E+02  6.509E+00  0.000E+00  0.000E+00  1.02503E+03  3.154E+00  4.574E+01  4.661E-01  1.287E+00
   1   13    5     8     2    2.0518E+02  1.0311E+00   2.1066E+02  6.509E+00  0.000E+00  0.000E+00  1.01881E+03  3.184E+00  4.616E+01  4.704E-01  7.306E-01
   1   13    4     8     3    2.1066E+02  1.2458E-01   2.1704E+02  6.509E+00  0.000E+00  0.000E+00  1.01259E+03  3.217E+00  4.665E+01  4.754E-01  8.735E-02
   1   13    3     8     4    2.1704E+02 -1.3846E+00   2.2493E+02  6.509E+00  0.000E+00  0.000E+00  1.00638E+03  3.257E+00  4.723E+01  4.813E+00 -9.589E-02
   1   13    2     8     5    2.2493E+02 -9.4728E-01   2.3239E+02  6.509E+00  0.000E+00  0.000E+00  1.00017E+03  3.299E+00  4.784E+01  4.875E+00 -6.477E-02
   1   13    1     8     6    2.3239E+02 -9.2140E-01   2.3722E+02  3.905E+00  0.000E+00  0.000E+00  9.95207E+02  3.332E+00  4.832E+01  2.954E+00 -1.040E-01



 UBDSV3 SAVING "     NETRECHARGE" ON UNIT 100 AT TIME STEP  4, STRESS PERIOD   2
 UBDSV3 SAVING "    NETDISCHARGE" ON UNIT 101 AT TIME STEP  4, STRESS PERIOD   2
 UBDSV3 SAVING "           GW ET" ON UNIT  61 AT TIME STEP  4, STRESS PERIOD   2
 UBDSV3 SAVING "    UZF RECHARGE" ON UNIT  61 AT TIME STEP  4, STRESS PERIOD   2
 UBDSV3 SAVING " SURFACE LEAKAGE" ON UNIT  61 AT TIME STEP  4, STRESS PERIOD   2
 UBDSV3 SAVING "       HORT+DUNN" ON UNIT  61 AT TIME STEP  4, STRESS PERIOD   2
 UBDSV3 SAVING "  STORAGE CHANGE" ON UNIT  61 AT TIME STEP  4, STRESS PERIOD   2


UNSATURATED ZONE PACKAGE VOLUMETRIC BUDGET FOR  TIME STEP     4 STRESS PERIOD    2
  ------------------------------------------------------------------------------



     CUMULATIVE VOLUMES      L**3       RATES FOR THIS TIME STEP      L**3/T
     ------------------                 ------------------------

           IN:                                      IN:
           ---                                      ---
        INFILTRATION =     8734426.9648          INFILTRATION =           2.9000

          OUT:                                     OUT:
          ----                                     ----
              UZF ET =       18102.0937                UZF ET =           0.0749
        UZF RECHARGE =     7632778.5655          UZF RECHARGE =           0.0255

            IN - OUT =     1083546.3057              IN - OUT =           2.7996

          STORAGE:                                 STORAGE:
          --------                                 --------
      STORAGE CHANGE =     1083546.2967        STORAGE CHANGE =           2.7996

 PERCENT DISCREPANCY IS DIFFERENCE BETWEEN IN-OUT MINUS CHANGE IN STORAGE
 DIVIDED BY THE AVERAGE OF IN AND OUT TIMES 100

 PERCENT DISCREPANCY =           0.00     PERCENT DISCREPANCY =           0.00






1
  VOLUMETRIC BUDGET FOR ENTIRE MODEL AT END OF TIME STEP    4, STRESS PERIOD   2
  ------------------------------------------------------------------------------

     CUMULATIVE VOLUMES      L**3       RATES FOR THIS TIME STEP      L**3/T
     ------------------                 ------------------------

           IN:                                      IN:
           ---                                      ---
             STORAGE =    13106190.0000               STORAGE =          34.0331
       CONSTANT HEAD =           0.0000         CONSTANT HEAD =           0.0000
               WELLS =           0.0000                 WELLS =           0.0000
     HEAD DEP BOUNDS =      884503.5000       HEAD DEP BOUNDS =           0.2937
      STREAM LEAKAGE =    44870160.0000        STREAM LEAKAGE =          15.9362
        UZF RECHARGE =     7632784.0000          UZF RECHARGE =       2.5499E-02
               GW ET =           0.0000                 GW ET =           0.0000
     SURFACE LEAKAGE =           0.0000       SURFACE LEAKAGE =           0.0000

            TOTAL IN =    66493640.0000              TOTAL IN =          50.2885

          OUT:                                     OUT:
          ----                                     ----
             STORAGE =      230754.2969               STORAGE =           0.5079
       CONSTANT HEAD =           0.0000         CONSTANT HEAD =           0.0000
               WELLS =    41634856.0000                 WELLS =          40.0000
     HEAD DEP BOUNDS =      862534.6875       HEAD DEP BOUNDS =           0.2857
      STREAM LEAKAGE =    18083504.0000        STREAM LEAKAGE =           3.2533
        UZF RECHARGE =           0.0000          UZF RECHARGE =           0.0000
               GW ET =     5682608.0000                 GW ET =           6.2434
     SURFACE LEAKAGE =           0.0000       SURFACE LEAKAGE =           0.0000

           TOTAL OUT =    66494260.0000             TOTAL OUT =          50.2903

            IN - OUT =        -620.0000              IN - OUT =      -1.7242E-03

 PERCENT DISCREPANCY =          -0.00     PERCENT DISCREPANCY =          -0.00






         TIME SUMMARY AT END OF TIME STEP    4 IN STRESS PERIOD    2
                    SECONDS     MINUTES      HOURS       DAYS        YEARS
                    -----------------------------------------------------------
   TIME STEP LENGTH 1.10091E+05  1834.9      30.581      1.2742     3.48858E-03
 STRESS PERIOD TIME 3.83871E+05  6397.9      106.63      4.4430     1.21642E-02
         TOTAL TIME 3.01187E+06  50198.      836.63      34.860     9.54404E-02
1
 
 SOLVING FOR HEAD 
                                                   Max.-Head-Change                         Max.-Flux-Residual
  Residual-Control   Outer-Iter.   Inner-Iter.     Column Row Layer    Maximum-Head-Change  Column Row Layer    Maximum-Flux-Residual          L2-NORM 
          0                 1           2             4    8     1      -0.7857672262E-01       4    8    1        -0.2972694863E+01      0.9070224950E+01
          0                 2           2             4    8     1       0.7786191688E-02       4    8    1         0.2972672521E+00      0.9068245884E+00
          0                 3           2             4    8     1      -0.6943931720E-03       4    8    1        -0.2675407794E-01      0.8160879606E-01
          0                 4           1             4    8     1       0.5511619168E-04       4    8    1         0.2143002005E-02      0.6536671907E-02

    ------------------------------------------------
       NWT REQUIRED            4 OUTER ITERATIONS 
       AND A TOTAL OF          7 INNER ITERATIONS.
    ------------------------------------------------

 OUTPUT CONTROL FOR STRESS PERIOD    2   TIME STEP    5
    PRINT BUDGET
    SAVE BUDGET

            WELLS   PERIOD    2   STEP   5
 WELL      1   LAYER   1   ROW     6   COL     4   RATE    -4.00000    
 WELL      2   LAYER   1   ROW     6   COL     5   RATE    -4.00000    
 WELL      3   LAYER   1   ROW     7   COL     4   RATE    -4.00000    
 WELL      4   LAYER   1   ROW     7   COL     5   RATE    -4.00000    
 WELL      5   LAYER   1   ROW     8   COL     4   RATE    -4.00000    
 WELL      6   LAYER   1   ROW     8   COL     5   RATE    -4.00000    
 WELL      7   LAYER   1   ROW     9   COL     4   RATE    -4.00000    
 WELL      8   LAYER   1   ROW     9   COL     5   RATE    -4.00000    
 WELL      9   LAYER   1   ROW    10   COL     4   RATE    -4.00000    
 WELL     10   LAYER   1   ROW    10   COL     5   RATE    -4.00000    

  HEAD DEP BOUNDS   PERIOD    2   STEP     5
 BOUNDARY      1   LAYER   1   ROW    13   COL     1   RATE   -0.285544    
 BOUNDARY      2   LAYER   1   ROW    14   COL     9   RATE    0.293753    



 STREAM LISTING     PERIOD      2   STEP        5

 LAYER ROW COL. STREAM  RCH.  FLOW INTO     FLOW TO   FLOW OUT OF   OVRLND.     DIRECT     STREAM       STREAM     STREAM     STREAM   STREAMBED  STREAMBED
                SEG.NO.  NO.  STRM. RCH.    AQUIFER    STRM. RCH.    RUNOFF     PRECIP       ET          HEAD       DEPTH      WIDTH   CONDCTNC.   GRADIENT

   1    1    1     1     1    2.5000E+01  2.4641E-01   2.5300E+01  5.466E-01  0.000E+00  0.000E+00  1.09423E+03  1.182E+00  1.309E+01  5.891E-02  1.394E+00
   1    2    2     1     2    2.5300E+01  3.8602E-01   2.5765E+01  8.503E-01  0.000E+00  0.000E+00  1.08925E+03  1.188E+00  1.317E+01  9.217E-02  1.396E+00
   1    3    3     1     3    2.5765E+01  3.3348E-01   2.6160E+01  7.289E-01  0.000E+00  0.000E+00  1.08361E+03  1.194E+00  1.325E+01  7.951E-02  1.398E+00
   1    3    4     1     4    2.6160E+01  3.1058E-01   2.6524E+01  6.742E-01  0.000E+00  0.000E+00  1.07861E+03  1.200E+00  1.332E+01  7.395E-02  1.400E+00
   1    4    5     2     1    1.6524E+01  3.0774E-01   1.6731E+01  5.151E-01  0.000E+00  0.000E+00  1.07288E+03  9.454E-01  1.200E+01  7.800E-02  1.315E+00
   1    5    6     2     2    1.6731E+01  2.3710E-01   1.6890E+01  3.962E-01  0.000E+00  0.000E+00  1.06746E+03  9.517E-01  1.200E+01  6.000E-02  1.317E+00
   1    6    6     2     3    1.6890E+01  2.3742E-01   1.7049E+01  3.962E-01  0.000E+00  0.000E+00  1.06275E+03  9.571E-01  1.200E+01  6.000E-02  1.319E+00
   1    7    6     2     4    1.7049E+01  2.3775E-01   1.7207E+01  3.962E-01  0.000E+00  0.000E+00  1.05804E+03  9.624E-01  1.200E+01  6.000E-02  1.321E+00
   1    8    6     2     5    1.7207E+01  2.3807E-01   1.7365E+01  3.962E-01  0.000E+00  0.000E+00  1.05333E+03  9.678E-01  1.200E+01  6.000E-02  1.323E+00
   1    3    5     3     1    1.0000E+01  2.8252E-01   1.1527E+01  1.809E+00  0.000E+00  0.000E+00  1.07555E+03  1.909E+00  9.636E+00  7.227E-02  1.955E+00
   1    3    6     3     2    1.1527E+01  2.4905E-01   1.3087E+01  1.809E+00  0.000E+00  0.000E+00  1.07264E+03  1.727E+00  8.909E+00  6.682E-02  1.864E+00
   1    3    7     3     3    1.3087E+01  1.9718E-01   1.4518E+01  1.628E+00  0.000E+00  0.000E+00  1.06987E+03  1.555E+00  8.218E+00  5.547E-02  1.777E+00
   1    4    8     3     4    1.4518E+01  2.2567E-01   1.6463E+01  2.171E+00  0.000E+00  0.000E+00  1.06682E+03  1.364E+00  7.455E+00  6.709E-02  1.682E+00
   1    5    8     3     5    1.6463E+01  1.5790E-01   1.8114E+01  1.809E+00  0.000E+00  0.000E+00  1.06362E+03  1.164E+00  6.655E+00  4.991E-02  1.582E+00
   1    6    8     3     6    1.8114E+01  5.5980E-02   1.8782E+01  7.236E-01  0.000E+00  0.000E+00  1.06158E+03  1.036E+00  6.145E+00  1.844E-02  1.518E+00
   1    5   10     4     1    1.0000E+01  9.1101E-02   1.0290E+01  3.807E-01  0.000E+00  0.000E+00  1.07837E+03  6.440E-01  1.000E+01  2.500E-02  1.215E+00
   1    5    9     4     2    1.0290E+01  1.8302E-01   1.0868E+01  7.614E-01  0.000E+00  0.000E+00  1.07157E+03  6.604E-01  1.000E+01  5.000E-02  1.220E+00
   1    6    8     4     3    1.0868E+01  1.2875E-01   1.1272E+01  5.330E-01  0.000E+00  0.000E+00  1.06386E+03  6.787E-01  1.000E+01  3.500E-02  1.226E+00
   1    6    8     5     1    3.0054E+01  4.6791E-01   3.0239E+01  6.533E-01  0.000E+00  0.000E+00  1.05899E+03  9.882E-01  2.933E+01  1.173E-01  1.329E+00
   1    7    7     5     2    3.0239E+01  5.8765E-01   3.0468E+01  8.167E-01  0.000E+00  0.000E+00  1.05449E+03  9.906E-01  2.945E+01  1.473E-01  1.330E+00
   1    8    7     5     3    3.0468E+01  4.1316E-01   3.0627E+01  5.717E-01  0.000E+00  0.000E+00  1.05024E+03  9.928E-01  2.956E+01  1.035E-01  1.331E+00
   1    8    6     5     4    3.0627E+01  2.9601E-01   3.0739E+01  4.083E-01  0.000E+00  0.000E+00  1.04724E+03  9.943E-01  2.964E+01  7.411E-02  1.331E+00
   1    9    6     6     1    4.8105E+01  2.8918E-01   4.9111E+01  1.295E+00  0.000E+00  0.000E+00  1.04455E+03  1.820E+00  1.200E+01  6.000E-02  1.607E+00
   1   10    7     6     2    4.9111E+01  2.9053E-01   5.0116E+01  1.295E+00  0.000E+00  0.000E+00  1.04002E+03  1.842E+00  1.200E+01  6.000E-02  1.614E+00
   1   11    7     6     3    5.0116E+01  2.9187E-01   5.1119E+01  1.295E+00  0.000E+00  0.000E+00  1.03550E+03  1.864E+00  1.200E+01  6.000E-02  1.621E+00
   1   12    7     6     4    5.1119E+01  2.9319E-01   5.2122E+01  1.295E+00  0.000E+00  0.000E+00  1.03098E+03  1.887E+00  1.200E+01  6.000E-02  1.629E+00
   1   13    7     6     5    5.2122E+01  4.8409E-02   5.2591E+01  5.182E-01  0.000E+00  0.000E+00  1.02781E+03  1.903E+00  1.200E+01  2.400E-02  6.723E-01
   1   14    9     7     1    1.5000E+02  1.4555E+00   1.4976E+02  1.218E+00  0.000E+00  0.000E+00  1.03987E+03  2.291E+00  5.531E+01  5.594E-01  8.672E-01
   1   13    8     7     2    1.4976E+02  2.2581E+00   1.4884E+02  1.340E+00  0.000E+00  0.000E+00  1.03479E+03  2.288E+00  5.529E+01  6.152E-01  1.223E+00
   1   13    7     7     3    1.4884E+02  2.1843E+00   1.4788E+02  1.218E+00  0.000E+00  0.000E+00  1.02970E+03  2.283E+00  5.527E+01  5.590E-01  1.302E+00
   1   13    6     8     1    2.0047E+02  1.7986E+00   2.0518E+02  6.509E+00  0.000E+00  0.000E+00  1.02503E+03  3.154E+00  4.574E+01  4.661E-01  1.286E+00
   1   13    5     8     2    2.0518E+02  1.0391E+00   2.1065E+02  6.509E+00  0.000E+00  0.000E+00  1.01881E+03  3.184E+00  4.616E+01  4.704E-01  7.363E-01
   1   13    4     8     3    2.1065E+02  1.3205E-01   2.1703E+02  6.509E+00  0.000E+00  0.000E+00  1.01259E+03  3.217E+00  4.665E+01  4.754E-01  9.259E-02
   1   13    3     8     4    2.1703E+02 -1.3844E+00   2.2492E+02  6.509E+00  0.000E+00  0.000E+00  1.00638E+03  3.257E+00  4.723E+01  4.813E+00 -9.588E-02
   1   13    2     8     5    2.2492E+02 -9.5978E-01   2.3239E+02  6.509E+00  0.000E+00  0.000E+00  1.00017E+03  3.299E+00  4.784E+01  4.875E+00 -6.563E-02
   1   13    1     8     6    2.3239E+02 -9.0719E-01   2.3720E+02  3.905E+00  0.000E+00  0.000E+00  9.95207E+02  3.332E+00  4.832E+01  2.954E+00 -1.024E-01



 UBDSV3 SAVING "     NETRECHARGE" ON UNIT 100 AT TIME STEP  5, STRESS PERIOD   2
 UBDSV3 SAVING "    NETDISCHARGE" ON UNIT 101 AT TIME STEP  5, STRESS PERIOD   2
 UBDSV3 SAVING "           GW ET" ON UNIT  61 AT TIME STEP  5, STRESS PERIOD   2
 UBDSV3 SAVING "    UZF RECHARGE" ON UNIT  61 AT TIME STEP  5, STRESS PERIOD   2
 UBDSV3 SAVING " SURFACE LEAKAGE" ON UNIT  61 AT TIME STEP  5, STRESS PERIOD   2
 UBDSV3 SAVING "       HORT+DUNN" ON UNIT  61 AT TIME STEP  5, STRESS PERIOD   2
 UBDSV3 SAVING "  STORAGE CHANGE" ON UNIT  61 AT TIME STEP  5, STRESS PERIOD   2


UNSATURATED ZONE PACKAGE VOLUMETRIC BUDGET FOR  TIME STEP     5 STRESS PERIOD    2
  ------------------------------------------------------------------------------



     CUMULATIVE VOLUMES      L**3       RATES FOR THIS TIME STEP      L**3/T
     ------------------                 ------------------------

           IN:                                      IN:
           ---                                      ---
        INFILTRATION =     9085617.5596          INFILTRATION =           2.9000

          OUT:                                     OUT:
          ----                                     ----
              UZF ET =       29980.2680                UZF ET =           0.0981
        UZF RECHARGE =     7635502.7864          UZF RECHARGE =           0.0225

            IN - OUT =     1420134.5052              IN - OUT =           2.7794

          STORAGE:                                 STORAGE:
          --------                                 --------
      STORAGE CHANGE =     1420134.5035        STORAGE CHANGE =           2.7794

 PERCENT DISCREPANCY IS DIFFERENCE BETWEEN IN-OUT MINUS CHANGE IN STORAGE
 DIVIDED BY THE AVERAGE OF IN AND OUT TIMES 100

 PERCENT DISCREPANCY =           0.00     PERCENT DISCREPANCY =           0.00






1
  VOLUMETRIC BUDGET FOR ENTIRE MODEL AT END OF TIME STEP    5, STRESS PERIOD   2
  ------------------------------------------------------------------------------

     CUMULATIVE VOLUMES      L**3       RATES FOR THIS TIME STEP      L**3/T
     ------------------                 ------------------------

           IN:                                      IN:
           ---                                      ---
             STORAGE =    17218388.0000               STORAGE =          33.9570
       CONSTANT HEAD =           0.0000         CONSTANT HEAD =           0.0000
               WELLS =           0.0000                 WELLS =           0.0000
     HEAD DEP BOUNDS =      920077.0625       HEAD DEP BOUNDS =           0.2938
      STREAM LEAKAGE =    46801872.0000        STREAM LEAKAGE =          15.9514
        UZF RECHARGE =     7635508.0000          UZF RECHARGE =       2.2496E-02
               GW ET =           0.0000                 GW ET =           0.0000
     SURFACE LEAKAGE =           0.0000       SURFACE LEAKAGE =           0.0000

            TOTAL IN =    72575840.0000              TOTAL IN =          50.2246

          OUT:                                     OUT:
          ----                                     ----
             STORAGE =      285010.0000               STORAGE =           0.4480
       CONSTANT HEAD =           0.0000         CONSTANT HEAD =           0.0000
               WELLS =    46478864.0000                 WELLS =          40.0000
     HEAD DEP BOUNDS =      897114.1250       HEAD DEP BOUNDS =           0.2855
      STREAM LEAKAGE =    18477242.0000        STREAM LEAKAGE =           3.2513
        UZF RECHARGE =           0.0000          UZF RECHARGE =           0.0000
               GW ET =     6438442.5000                 GW ET =           6.2414
     SURFACE LEAKAGE =           0.0000       SURFACE LEAKAGE =           0.0000

           TOTAL OUT =    72576672.0000             TOTAL OUT =          50.2263

            IN - OUT =        -832.0000              IN - OUT =      -1.7204E-03

 PERCENT DISCREPANCY =          -0.00     PERCENT DISCREPANCY =          -0.00






         TIME SUMMARY AT END OF TIME STEP    5 IN STRESS PERIOD    2
                    SECONDS     MINUTES      HOURS       DAYS        YEARS
                    -----------------------------------------------------------
   TIME STEP LENGTH 1.21100E+05  2018.3      33.639      1.4016     3.83743E-03
 STRESS PERIOD TIME 5.04972E+05  8416.2      140.27      5.8446     1.60016E-02
         TOTAL TIME 3.13297E+06  52216.      870.27      36.261     9.92779E-02
1
 
 SOLVING FOR HEAD 
                                                   Max.-Head-Change                         Max.-Flux-Residual
  Residual-Control   Outer-Iter.   Inner-Iter.     Column Row Layer    Maximum-Head-Change  Column Row Layer    Maximum-Flux-Residual          L2-NORM 
          0                 1           2             4    8     1      -0.8583725017E-01       4    8    1        -0.2954757375E+01      0.8912068169E+01
          0                 2           2             4    8     1       0.8505626742E-02       4    8    1         0.2954729660E+00      0.8910451892E+00
          0                 3           2             4    8     1      -0.7585544289E-03       4    8    1        -0.2659259746E-01      0.8018941693E-01
          0                 4           1             4    8     1       0.6020887345E-04       4    8    1         0.2130067372E-02      0.6422987158E-02

    ------------------------------------------------
       NWT REQUIRED            4 OUTER ITERATIONS 
       AND A TOTAL OF          7 INNER ITERATIONS.
    ------------------------------------------------

 NO OUTPUT CONTROL FOR STRESS PERIOD    2   TIME STEP    6
 
 SOLVING FOR HEAD 
                                                   Max.-Head-Change                         Max.-Flux-Residual
  Residual-Control   Outer-Iter.   Inner-Iter.     Column Row Layer    Maximum-Head-Change  Column Row Layer    Maximum-Flux-Residual          L2-NORM 
          0                 1           2             4    8     1      -0.9367437459E-01       4    8    1        -0.2934338549E+01      0.8749357596E+01
          0                 2           2             4    8     1       0.9282166664E-02       4    8    1         0.2934304029E+00      0.8741021610E+00
          0                 3           2             4    8     1      -0.8278085130E-03       4    8    1        -0.2640877345E-01      0.7866525732E-01
          0                 4           1             4    8     1       0.6570578949E-04       4    8    1         0.2115343018E-02      0.6300926838E-02

    ------------------------------------------------
       NWT REQUIRED            4 OUTER ITERATIONS 
       AND A TOTAL OF          7 INNER ITERATIONS.
    ------------------------------------------------

 NO OUTPUT CONTROL FOR STRESS PERIOD    2   TIME STEP    7
 
 SOLVING FOR HEAD 
                                                   Max.-Head-Change                         Max.-Flux-Residual
  Residual-Control   Outer-Iter.   Inner-Iter.     Column Row Layer    Maximum-Head-Change  Column Row Layer    Maximum-Flux-Residual          L2-NORM 
          0                 1           2             4    8     1      -0.1021105183E+00       4    8    1        -0.2911137627E+01      0.8583143478E+01
          0                 2           2             4    8     1       0.1011810294E-01       4    8    1         0.2911094540E+00      0.8582141093E+00
          0                 3           2             4    8     1      -0.9023598048E-03       4    8    1        -0.2619989641E-01      0.7723606469E-01
          0                 4           1             4    8     1       0.7162315983E-04       4    8    1         0.2098611897E-02      0.6186446599E-02

    ------------------------------------------------
       NWT REQUIRED            4 OUTER ITERATIONS 
       AND A TOTAL OF          7 INNER ITERATIONS.
    ------------------------------------------------

 NO OUTPUT CONTROL FOR STRESS PERIOD    2   TIME STEP    8
 
 SOLVING FOR HEAD 
                                                   Max.-Head-Change                         Max.-Flux-Residual
  Residual-Control   Outer-Iter.   Inner-Iter.     Column Row Layer    Maximum-Head-Change  Column Row Layer    Maximum-Flux-Residual          L2-NORM 
          0                 1           2             4    8     1      -0.1111626295E+00       4    8    1        -0.2884826744E+01      0.8413651618E+01
          0                 2           2             4    8     1       0.1101503959E-01       4    8    1         0.2884772932E+00      0.8412882633E+00
          0                 3           2             4    8     1      -0.9823513872E-03       4    8    1        -0.2596301245E-01      0.7571331487E-01
          0                 4           1             4    8     1       0.7797234295E-04       4    8    1         0.2079637410E-02      0.6064486586E-02

    ------------------------------------------------
       NWT REQUIRED            4 OUTER ITERATIONS 
       AND A TOTAL OF          7 INNER ITERATIONS.
    ------------------------------------------------

 NO OUTPUT CONTROL FOR STRESS PERIOD    2   TIME STEP    9
 
 SOLVING FOR HEAD 
                                                   Max.-Head-Change                         Max.-Flux-Residual
  Residual-Control   Outer-Iter.   Inner-Iter.     Column Row Layer    Maximum-Head-Change  Column Row Layer    Maximum-Flux-Residual          L2-NORM 
          0                 1           2             4    8     1      -0.1208409859E+00       4    8    1        -0.2855061008E+01      0.8241005546E+01
          0                 2           2             4    8     1       0.1197432738E-01       4    8    1         0.2854993872E+00      0.8240584987E+00
          0                 3           2             4    8     1      -0.1067903744E-02       4    8    1        -0.2569501369E-01      0.7416321240E-01
          0                 4           1             4    8     1       0.8476290051E-04       4    8    1         0.2058170604E-02      0.5940357955E-02

    ------------------------------------------------
       NWT REQUIRED            4 OUTER ITERATIONS 
       AND A TOTAL OF          7 INNER ITERATIONS.
    ------------------------------------------------

 OUTPUT CONTROL FOR STRESS PERIOD    2   TIME STEP   10
    PRINT BUDGET
    SAVE BUDGET

            WELLS   PERIOD    2   STEP  10
 WELL      1   LAYER   1   ROW     6   COL     4   RATE    -4.00000    
 WELL      2   LAYER   1   ROW     6   COL     5   RATE    -4.00000    
 WELL      3   LAYER   1   ROW     7   COL     4   RATE    -4.00000    
 WELL      4   LAYER   1   ROW     7   COL     5   RATE    -4.00000    
 WELL      5   LAYER   1   ROW     8   COL     4   RATE    -4.00000    
 WELL      6   LAYER   1   ROW     8   COL     5   RATE    -4.00000    
 WELL      7   LAYER   1   ROW     9   COL     4   RATE    -4.00000    
 WELL      8   LAYER   1   ROW     9   COL     5   RATE    -4.00000    
 WELL      9   LAYER   1   ROW    10   COL     4   RATE    -4.00000    
 WELL     10   LAYER   1   ROW    10   COL     5   RATE    -4.00000    

  HEAD DEP BOUNDS   PERIOD    2   STEP    10
 BOUNDARY      1   LAYER   1   ROW    13   COL     1   RATE   -0.284646    
 BOUNDARY      2   LAYER   1   ROW    14   COL     9   RATE    0.293884    



 STREAM LISTING     PERIOD      2   STEP       10

 LAYER ROW COL. STREAM  RCH.  FLOW INTO     FLOW TO   FLOW OUT OF   OVRLND.     DIRECT     STREAM       STREAM     STREAM     STREAM   STREAMBED  STREAMBED
                SEG.NO.  NO.  STRM. RCH.    AQUIFER    STRM. RCH.    RUNOFF     PRECIP       ET          HEAD       DEPTH      WIDTH   CONDCTNC.   GRADIENT

   1    1    1     1     1    2.5000E+01  2.4641E-01   2.5300E+01  5.466E-01  0.000E+00  0.000E+00  1.09423E+03  1.182E+00  1.309E+01  5.891E-02  1.394E+00
   1    2    2     1     2    2.5300E+01  3.8602E-01   2.5765E+01  8.503E-01  0.000E+00  0.000E+00  1.08925E+03  1.188E+00  1.317E+01  9.217E-02  1.396E+00
   1    3    3     1     3    2.5765E+01  3.3348E-01   2.6160E+01  7.289E-01  0.000E+00  0.000E+00  1.08361E+03  1.194E+00  1.325E+01  7.951E-02  1.398E+00
   1    3    4     1     4    2.6160E+01  3.1058E-01   2.6524E+01  6.742E-01  0.000E+00  0.000E+00  1.07861E+03  1.200E+00  1.332E+01  7.395E-02  1.400E+00
   1    4    5     2     1    1.6524E+01  3.0774E-01   1.6731E+01  5.151E-01  0.000E+00  0.000E+00  1.07288E+03  9.454E-01  1.200E+01  7.800E-02  1.315E+00
   1    5    6     2     2    1.6731E+01  2.3710E-01   1.6890E+01  3.962E-01  0.000E+00  0.000E+00  1.06746E+03  9.517E-01  1.200E+01  6.000E-02  1.317E+00
   1    6    6     2     3    1.6890E+01  2.3742E-01   1.7049E+01  3.962E-01  0.000E+00  0.000E+00  1.06275E+03  9.571E-01  1.200E+01  6.000E-02  1.319E+00
   1    7    6     2     4    1.7049E+01  2.3775E-01   1.7207E+01  3.962E-01  0.000E+00  0.000E+00  1.05804E+03  9.624E-01  1.200E+01  6.000E-02  1.321E+00
   1    8    6     2     5    1.7207E+01  2.3807E-01   1.7365E+01  3.962E-01  0.000E+00  0.000E+00  1.05333E+03  9.678E-01  1.200E+01  6.000E-02  1.323E+00
   1    3    5     3     1    1.0000E+01  2.8252E-01   1.1527E+01  1.809E+00  0.000E+00  0.000E+00  1.07555E+03  1.909E+00  9.636E+00  7.227E-02  1.955E+00
   1    3    6     3     2    1.1527E+01  2.4905E-01   1.3087E+01  1.809E+00  0.000E+00  0.000E+00  1.07264E+03  1.727E+00  8.909E+00  6.682E-02  1.864E+00
   1    3    7     3     3    1.3087E+01  1.9718E-01   1.4518E+01  1.628E+00  0.000E+00  0.000E+00  1.06987E+03  1.555E+00  8.218E+00  5.547E-02  1.777E+00
   1    4    8     3     4    1.4518E+01  2.2567E-01   1.6463E+01  2.171E+00  0.000E+00  0.000E+00  1.06682E+03  1.364E+00  7.455E+00  6.709E-02  1.682E+00
   1    5    8     3     5    1.6463E+01  1.5790E-01   1.8114E+01  1.809E+00  0.000E+00  0.000E+00  1.06362E+03  1.164E+00  6.655E+00  4.991E-02  1.582E+00
   1    6    8     3     6    1.8114E+01  5.5980E-02   1.8782E+01  7.236E-01  0.000E+00  0.000E+00  1.06158E+03  1.036E+00  6.145E+00  1.844E-02  1.518E+00
   1    5   10     4     1    1.0000E+01  9.1101E-02   1.0290E+01  3.807E-01  0.000E+00  0.000E+00  1.07837E+03  6.440E-01  1.000E+01  2.500E-02  1.215E+00
   1    5    9     4     2    1.0290E+01  1.8302E-01   1.0868E+01  7.614E-01  0.000E+00  0.000E+00  1.07157E+03  6.604E-01  1.000E+01  5.000E-02  1.220E+00
   1    6    8     4     3    1.0868E+01  1.2875E-01   1.1272E+01  5.330E-01  0.000E+00  0.000E+00  1.06386E+03  6.787E-01  1.000E+01  3.500E-02  1.226E+00
   1    6    8     5     1    3.0054E+01  4.6791E-01   3.0239E+01  6.533E-01  0.000E+00  0.000E+00  1.05899E+03  9.882E-01  2.933E+01  1.173E-01  1.329E+00
   1    7    7     5     2    3.0239E+01  5.8765E-01   3.0468E+01  8.167E-01  0.000E+00  0.000E+00  1.05449E+03  9.906E-01  2.945E+01  1.473E-01  1.330E+00
   1    8    7     5     3    3.0468E+01  4.1316E-01   3.0627E+01  5.717E-01  0.000E+00  0.000E+00  1.05024E+03  9.928E-01  2.956E+01  1.035E-01  1.331E+00
   1    8    6     5     4    3.0627E+01  2.9601E-01   3.0739E+01  4.083E-01  0.000E+00  0.000E+00  1.04724E+03  9.943E-01  2.964E+01  7.411E-02  1.331E+00
   1    9    6     6     1    4.8105E+01  2.8918E-01   4.9111E+01  1.295E+00  0.000E+00  0.000E+00  1.04455E+03  1.820E+00  1.200E+01  6.000E-02  1.607E+00
   1   10    7     6     2    4.9111E+01  2.9053E-01   5.0116E+01  1.295E+00  0.000E+00  0.000E+00  1.04002E+03  1.842E+00  1.200E+01  6.000E-02  1.614E+00
   1   11    7     6     3    5.0116E+01  2.9187E-01   5.1119E+01  1.295E+00  0.000E+00  0.000E+00  1.03550E+03  1.864E+00  1.200E+01  6.000E-02  1.621E+00
   1   12    7     6     4    5.1119E+01  2.9319E-01   5.2122E+01  1.295E+00  0.000E+00  0.000E+00  1.03098E+03  1.887E+00  1.200E+01  6.000E-02  1.629E+00
   1   13    7     6     5    5.2122E+01  4.8395E-02   5.2591E+01  5.182E-01  0.000E+00  0.000E+00  1.02781E+03  1.903E+00  1.200E+01  2.400E-02  6.722E-01
   1   14    9     7     1    1.5000E+02  1.4574E+00   1.4976E+02  1.218E+00  0.000E+00  0.000E+00  1.03987E+03  2.291E+00  5.531E+01  5.594E-01  8.684E-01
   1   13    8     7     2    1.4976E+02  2.2597E+00   1.4884E+02  1.340E+00  0.000E+00  0.000E+00  1.03479E+03  2.288E+00  5.529E+01  6.152E-01  1.224E+00
   1   13    7     7     3    1.4884E+02  2.1840E+00   1.4787E+02  1.218E+00  0.000E+00  0.000E+00  1.02970E+03  2.283E+00  5.527E+01  5.590E-01  1.302E+00
   1   13    6     8     1    2.0047E+02  1.7966E+00   2.0518E+02  6.509E+00  0.000E+00  0.000E+00  1.02503E+03  3.154E+00  4.574E+01  4.661E-01  1.285E+00
   1   13    5     8     2    2.0518E+02  1.0842E+00   2.1060E+02  6.509E+00  0.000E+00  0.000E+00  1.01881E+03  3.184E+00  4.616E+01  4.704E-01  7.683E-01
   1   13    4     8     3    2.1060E+02  1.7471E-01   2.1694E+02  6.509E+00  0.000E+00  0.000E+00  1.01259E+03  3.217E+00  4.665E+01  4.754E-01  1.225E-01
   1   13    3     8     4    2.1694E+02 -1.3669E+00   2.2481E+02  6.509E+00  0.000E+00  0.000E+00  1.00638E+03  3.257E+00  4.722E+01  4.812E+00 -9.468E-02
   1   13    2     8     5    2.2481E+02 -1.0067E+00   2.3233E+02  6.509E+00  0.000E+00  0.000E+00  1.00017E+03  3.299E+00  4.783E+01  4.874E+00 -6.885E-02
   1   13    1     8     6    2.3233E+02 -8.3874E-01   2.3707E+02  3.905E+00  0.000E+00  0.000E+00  9.95207E+02  3.332E+00  4.831E+01  2.954E+00 -9.465E-02



 UBDSV3 SAVING "     NETRECHARGE" ON UNIT 100 AT TIME STEP 10, STRESS PERIOD   2
 UBDSV3 SAVING "    NETDISCHARGE" ON UNIT 101 AT TIME STEP 10, STRESS PERIOD   2
 UBDSV3 SAVING "           GW ET" ON UNIT  61 AT TIME STEP 10, STRESS PERIOD   2
 UBDSV3 SAVING "    UZF RECHARGE" ON UNIT  61 AT TIME STEP 10, STRESS PERIOD   2
 UBDSV3 SAVING " SURFACE LEAKAGE" ON UNIT  61 AT TIME STEP 10, STRESS PERIOD   2
 UBDSV3 SAVING "       HORT+DUNN" ON UNIT  61 AT TIME STEP 10, STRESS PERIOD   2
 UBDSV3 SAVING "  STORAGE CHANGE" ON UNIT  61 AT TIME STEP 10, STRESS PERIOD   2


UNSATURATED ZONE PACKAGE VOLUMETRIC BUDGET FOR  TIME STEP    10 STRESS PERIOD    2
  ------------------------------------------------------------------------------



     CUMULATIVE VOLUMES      L**3       RATES FOR THIS TIME STEP      L**3/T
     ------------------                 ------------------------

           IN:                                      IN:
           ---                                      ---
        INFILTRATION =    11444076.8271          INFILTRATION =           2.9000

          OUT:                                     OUT:
          ----                                     ----
              UZF ET =      179846.1455                UZF ET =           0.2373
        UZF RECHARGE =     7646024.1670          UZF RECHARGE =           0.0073

            IN - OUT =     3618206.5146              IN - OUT =           2.6554

          STORAGE:                                 STORAGE:
          --------                                 --------
      STORAGE CHANGE =     3618206.4820        STORAGE CHANGE =           2.6554

 PERCENT DISCREPANCY IS DIFFERENCE BETWEEN IN-OUT MINUS CHANGE IN STORAGE
 DIVIDED BY THE AVERAGE OF IN AND OUT TIMES 100

 PERCENT DISCREPANCY =           0.00     PERCENT DISCREPANCY =           0.00






1
  VOLUMETRIC BUDGET FOR ENTIRE MODEL AT END OF TIME STEP   10, STRESS PERIOD   2
  ------------------------------------------------------------------------------

     CUMULATIVE VOLUMES      L**3       RATES FOR THIS TIME STEP      L**3/T
     ------------------                 ------------------------

           IN:                                      IN:
           ---                                      ---
             STORAGE =    44618172.0000               STORAGE =          33.5278
       CONSTANT HEAD =           0.0000         CONSTANT HEAD =           0.0000
               WELLS =           0.0000                 WELLS =           0.0000
     HEAD DEP BOUNDS =     1159039.6250       HEAD DEP BOUNDS =           0.2939
      STREAM LEAKAGE =    59819292.0000        STREAM LEAKAGE =          16.0403
        UZF RECHARGE =     7646029.5000          UZF RECHARGE =       7.3106E-03
               GW ET =           0.0000                 GW ET =           0.0000
     SURFACE LEAKAGE =           0.0000       SURFACE LEAKAGE =           0.0000

            TOTAL IN =   113242536.0000              TOTAL IN =          49.8693

          OUT:                                     OUT:
          ----                                     ----
             STORAGE =      494060.5938               STORAGE =           0.1448
       CONSTANT HEAD =           0.0000         CONSTANT HEAD =           0.0000
               WELLS =    79009344.0000                 WELLS =          40.0000
     HEAD DEP BOUNDS =     1128864.8750       HEAD DEP BOUNDS =           0.2846
      STREAM LEAKAGE =    21104306.0000        STREAM LEAKAGE =           3.2124
        UZF RECHARGE =           0.0000          UZF RECHARGE =           0.0000
               GW ET =    11508182.0000                 GW ET =           6.2292
     SURFACE LEAKAGE =           0.0000       SURFACE LEAKAGE =           0.0000

           TOTAL OUT =   113244760.0000             TOTAL OUT =          49.8710

            IN - OUT =       -2224.0000              IN - OUT =      -1.6937E-03

 PERCENT DISCREPANCY =          -0.00     PERCENT DISCREPANCY =          -0.00






         TIME SUMMARY AT END OF TIME STEP   10 IN STRESS PERIOD    2
                    SECONDS     MINUTES      HOURS       DAYS        YEARS
                    -----------------------------------------------------------
   TIME STEP LENGTH 1.95033E+05  3250.6      54.176      2.2573     6.18023E-03
 STRESS PERIOD TIME 1.31823E+06  21971.      366.18      15.257     4.17723E-02
         TOTAL TIME 3.94623E+06  65771.      1096.2      45.674     0.12505    
1
 
 SOLVING FOR HEAD 
                                                   Max.-Head-Change                         Max.-Flux-Residual
  Residual-Control   Outer-Iter.   Inner-Iter.     Column Row Layer    Maximum-Head-Change  Column Row Layer    Maximum-Flux-Residual          L2-NORM 
          0                 1           2             4    8     1      -0.1311459332E+00       4    8    1        -0.2821479562E+01      0.8065697562E+01
          0                 2           2             4    8     1       0.1299505770E-01       4    8    1         0.2821395920E+00      0.8065224462E+00
          0                 3           2             4    8     1      -0.1158935915E-02       4    8    1        -0.2539264855E-01      0.7258539720E-01
          0                 4           1             4    8     1       0.9198840530E-04       4    8    1         0.2033951014E-02      0.5813979390E-02

    ------------------------------------------------
       NWT REQUIRED            4 OUTER ITERATIONS 
       AND A TOTAL OF          7 INNER ITERATIONS.
    ------------------------------------------------

 NO OUTPUT CONTROL FOR STRESS PERIOD    2   TIME STEP   11
 
 SOLVING FOR HEAD 
                                                   Max.-Head-Change                         Max.-Flux-Residual
  Residual-Control   Outer-Iter.   Inner-Iter.     Column Row Layer    Maximum-Head-Change  Column Row Layer    Maximum-Flux-Residual          L2-NORM 
          0                 1           2             4    8     1      -0.1420698342E+00       4    8    1        -0.2783721121E+01      0.7888189006E+01
          0                 2           2             4    8     1       0.1407740464E-01       4    8    1         0.2783617384E+00      0.7887757587E+00
          0                 3           2             4    8     1      -0.1255463489E-02       4    8    1        -0.2505266142E-01      0.7098844081E-01
          0                 4           1             4    8     1       0.9965009504E-04       4    8    1         0.2006717881E-02      0.5686039677E-02

    ------------------------------------------------
       NWT REQUIRED            4 OUTER ITERATIONS 
       AND A TOTAL OF          7 INNER ITERATIONS.
    ------------------------------------------------

 NO OUTPUT CONTROL FOR STRESS PERIOD    2   TIME STEP   12
 
 SOLVING FOR HEAD 
                                                   Max.-Head-Change                         Max.-Flux-Residual
  Residual-Control   Outer-Iter.   Inner-Iter.     Column Row Layer    Maximum-Head-Change  Column Row Layer    Maximum-Flux-Residual          L2-NORM 
          0                 1           2             4    8     1      -0.1535922472E+00       4    8    1        -0.2741449416E+01      0.7708955615E+01
          0                 2           2             4    8     1       0.1521902312E-01       4    8    1         0.2741321453E+00      0.7708527272E+00
          0                 3           2             4    8     1      -0.1357277439E-02       4    8    1        -0.2467202178E-01      0.6937551799E-01
          0                 4           2             4    8     1       0.1077313819E-03       4    8    1         0.1976228447E-02      0.5556862364E-02
          0                 5           1             4    8     1      -0.7504753376E-05       4    8    1        -0.1389269510E-03      0.3906355083E-03

    ------------------------------------------------
       NWT REQUIRED            5 OUTER ITERATIONS 
       AND A TOTAL OF          9 INNER ITERATIONS.
    ------------------------------------------------

 NO OUTPUT CONTROL FOR STRESS PERIOD    2   TIME STEP   13
 
 SOLVING FOR HEAD 
                                                   Max.-Head-Change                         Max.-Flux-Residual
  Residual-Control   Outer-Iter.   Inner-Iter.     Column Row Layer    Maximum-Head-Change  Column Row Layer    Maximum-Flux-Residual          L2-NORM 
          0                 1           2             4    8     1      -0.1656798876E+00       4    8    1        -0.2694354273E+01      0.7528402805E+01
          0                 2           2             4    8     1       0.1641660475E-01       4    8    1         0.2694197477E+00      0.7527969940E+00
          0                 3           2             4    8     1      -0.1464082782E-02       4    8    1        -0.2424793424E-01      0.6775065196E-01
          0                 4           2             4    8     1       0.1162088461E-03       4    8    1         0.1942258802E-02      0.5426712080E-02
          0                 5           1             4    8     1      -0.8095308618E-05       4    8    1        -0.1365389171E-03      0.3814823964E-03

    ------------------------------------------------
       NWT REQUIRED            5 OUTER ITERATIONS 
       AND A TOTAL OF          9 INNER ITERATIONS.
    ------------------------------------------------

 NO OUTPUT CONTROL FOR STRESS PERIOD    2   TIME STEP   14
 
 SOLVING FOR HEAD 
                                                   Max.-Head-Change                         Max.-Flux-Residual
  Residual-Control   Outer-Iter.   Inner-Iter.     Column Row Layer    Maximum-Head-Change  Column Row Layer    Maximum-Flux-Residual          L2-NORM 
          0                 1           2             4    8     1      -0.1782859698E+00       4    8    1        -0.2642179016E+01      0.7346954306E+01
          0                 2           2             4    8     1       0.1766550274E-01       4    8    1         0.2641988391E+00      0.7346510269E+00
          0                 3           2             4    8     1      -0.1575465212E-02       4    8    1        -0.2377808562E-01      0.6611766889E-01
          0                 4           2             4    8     1       0.1250496035E-03       4    8    1         0.1904623653E-02      0.5295945562E-02
          0                 5           1             4    8     1      -0.8711170311E-05       4    8    1        -0.1338931997E-03      0.3722970535E-03

    ------------------------------------------------
       NWT REQUIRED            5 OUTER ITERATIONS 
       AND A TOTAL OF          9 INNER ITERATIONS.
    ------------------------------------------------

 OUTPUT CONTROL FOR STRESS PERIOD    2   TIME STEP   15
    PRINT BUDGET
    PRINT HEAD FOR ALL LAYERS
    SAVE HEAD FOR ALL LAYERS
    SAVE BUDGET

            WELLS   PERIOD    2   STEP  15
 WELL      1   LAYER   1   ROW     6   COL     4   RATE    -4.00000    
 WELL      2   LAYER   1   ROW     6   COL     5   RATE    -4.00000    
 WELL      3   LAYER   1   ROW     7   COL     4   RATE    -4.00000    
 WELL      4   LAYER   1   ROW     7   COL     5   RATE    -4.00000    
 WELL      5   LAYER   1   ROW     8   COL     4   RATE    -4.00000    
 WELL      6   LAYER   1   ROW     8   COL     5   RATE    -4.00000    
 WELL      7   LAYER   1   ROW     9   COL     4   RATE    -4.00000    
 WELL      8   LAYER   1   ROW     9   COL     5   RATE    -4.00000    
 WELL      9   LAYER   1   ROW    10   COL     4   RATE    -4.00000    
 WELL     10   LAYER   1   ROW    10   COL     5   RATE    -4.00000    

  HEAD DEP BOUNDS   PERIOD    2   STEP    15
 BOUNDARY      1   LAYER   1   ROW    13   COL     1   RATE   -0.283936    
 BOUNDARY      2   LAYER   1   ROW    14   COL     9   RATE    0.294078    



 STREAM LISTING     PERIOD      2   STEP       15

 LAYER ROW COL. STREAM  RCH.  FLOW INTO     FLOW TO   FLOW OUT OF   OVRLND.     DIRECT     STREAM       STREAM     STREAM     STREAM   STREAMBED  STREAMBED
                SEG.NO.  NO.  STRM. RCH.    AQUIFER    STRM. RCH.    RUNOFF     PRECIP       ET          HEAD       DEPTH      WIDTH   CONDCTNC.   GRADIENT

   1    1    1     1     1    2.5000E+01  2.4641E-01   2.5300E+01  5.466E-01  0.000E+00  0.000E+00  1.09423E+03  1.182E+00  1.309E+01  5.891E-02  1.394E+00
   1    2    2     1     2    2.5300E+01  3.8602E-01   2.5765E+01  8.503E-01  0.000E+00  0.000E+00  1.08925E+03  1.188E+00  1.317E+01  9.217E-02  1.396E+00
   1    3    3     1     3    2.5765E+01  3.3348E-01   2.6160E+01  7.289E-01  0.000E+00  0.000E+00  1.08361E+03  1.194E+00  1.325E+01  7.951E-02  1.398E+00
   1    3    4     1     4    2.6160E+01  3.1058E-01   2.6524E+01  6.742E-01  0.000E+00  0.000E+00  1.07861E+03  1.200E+00  1.332E+01  7.395E-02  1.400E+00
   1    4    5     2     1    1.6524E+01  3.0774E-01   1.6731E+01  5.151E-01  0.000E+00  0.000E+00  1.07288E+03  9.454E-01  1.200E+01  7.800E-02  1.315E+00
   1    5    6     2     2    1.6731E+01  2.3710E-01   1.6890E+01  3.962E-01  0.000E+00  0.000E+00  1.06746E+03  9.517E-01  1.200E+01  6.000E-02  1.317E+00
   1    6    6     2     3    1.6890E+01  2.3742E-01   1.7049E+01  3.962E-01  0.000E+00  0.000E+00  1.06275E+03  9.571E-01  1.200E+01  6.000E-02  1.319E+00
   1    7    6     2     4    1.7049E+01  2.3775E-01   1.7207E+01  3.962E-01  0.000E+00  0.000E+00  1.05804E+03  9.624E-01  1.200E+01  6.000E-02  1.321E+00
   1    8    6     2     5    1.7207E+01  2.3807E-01   1.7365E+01  3.962E-01  0.000E+00  0.000E+00  1.05333E+03  9.678E-01  1.200E+01  6.000E-02  1.323E+00
   1    3    5     3     1    1.0000E+01  2.8252E-01   1.1527E+01  1.809E+00  0.000E+00  0.000E+00  1.07555E+03  1.909E+00  9.636E+00  7.227E-02  1.955E+00
   1    3    6     3     2    1.1527E+01  2.4905E-01   1.3087E+01  1.809E+00  0.000E+00  0.000E+00  1.07264E+03  1.727E+00  8.909E+00  6.682E-02  1.864E+00
   1    3    7     3     3    1.3087E+01  1.9718E-01   1.4518E+01  1.628E+00  0.000E+00  0.000E+00  1.06987E+03  1.555E+00  8.218E+00  5.547E-02  1.777E+00
   1    4    8     3     4    1.4518E+01  2.2567E-01   1.6463E+01  2.171E+00  0.000E+00  0.000E+00  1.06682E+03  1.364E+00  7.455E+00  6.709E-02  1.682E+00
   1    5    8     3     5    1.6463E+01  1.5790E-01   1.8114E+01  1.809E+00  0.000E+00  0.000E+00  1.06362E+03  1.164E+00  6.655E+00  4.991E-02  1.582E+00
   1    6    8     3     6    1.8114E+01  5.5980E-02   1.8782E+01  7.236E-01  0.000E+00  0.000E+00  1.06158E+03  1.036E+00  6.145E+00  1.844E-02  1.518E+00
   1    5   10     4     1    1.0000E+01  9.1101E-02   1.0290E+01  3.807E-01  0.000E+00  0.000E+00  1.07837E+03  6.440E-01  1.000E+01  2.500E-02  1.215E+00
   1    5    9     4     2    1.0290E+01  1.8302E-01   1.0868E+01  7.614E-01  0.000E+00  0.000E+00  1.07157E+03  6.604E-01  1.000E+01  5.000E-02  1.220E+00
   1    6    8     4     3    1.0868E+01  1.2875E-01   1.1272E+01  5.330E-01  0.000E+00  0.000E+00  1.06386E+03  6.787E-01  1.000E+01  3.500E-02  1.226E+00
   1    6    8     5     1    3.0054E+01  4.6791E-01   3.0239E+01  6.533E-01  0.000E+00  0.000E+00  1.05899E+03  9.882E-01  2.933E+01  1.173E-01  1.329E+00
   1    7    7     5     2    3.0239E+01  5.8765E-01   3.0468E+01  8.167E-01  0.000E+00  0.000E+00  1.05449E+03  9.906E-01  2.945E+01  1.473E-01  1.330E+00
   1    8    7     5     3    3.0468E+01  4.1316E-01   3.0627E+01  5.717E-01  0.000E+00  0.000E+00  1.05024E+03  9.928E-01  2.956E+01  1.035E-01  1.331E+00
   1    8    6     5     4    3.0627E+01  2.9601E-01   3.0739E+01  4.083E-01  0.000E+00  0.000E+00  1.04724E+03  9.943E-01  2.964E+01  7.411E-02  1.331E+00
   1    9    6     6     1    4.8105E+01  2.8918E-01   4.9111E+01  1.295E+00  0.000E+00  0.000E+00  1.04455E+03  1.820E+00  1.200E+01  6.000E-02  1.607E+00
   1   10    7     6     2    4.9111E+01  2.9053E-01   5.0116E+01  1.295E+00  0.000E+00  0.000E+00  1.04002E+03  1.842E+00  1.200E+01  6.000E-02  1.614E+00
   1   11    7     6     3    5.0116E+01  2.9187E-01   5.1119E+01  1.295E+00  0.000E+00  0.000E+00  1.03550E+03  1.864E+00  1.200E+01  6.000E-02  1.621E+00
   1   12    7     6     4    5.1119E+01  2.9319E-01   5.2122E+01  1.295E+00  0.000E+00  0.000E+00  1.03098E+03  1.887E+00  1.200E+01  6.000E-02  1.629E+00
   1   13    7     6     5    5.2122E+01  4.8410E-02   5.2591E+01  5.182E-01  0.000E+00  0.000E+00  1.02781E+03  1.903E+00  1.200E+01  2.400E-02  6.724E-01
   1   14    9     7     1    1.5000E+02  1.4603E+00   1.4976E+02  1.218E+00  0.000E+00  0.000E+00  1.03987E+03  2.291E+00  5.531E+01  5.594E-01  8.701E-01
   1   13    8     7     2    1.4976E+02  2.2620E+00   1.4883E+02  1.340E+00  0.000E+00  0.000E+00  1.03479E+03  2.288E+00  5.529E+01  6.152E-01  1.226E+00
   1   13    7     7     3    1.4883E+02  2.1843E+00   1.4787E+02  1.218E+00  0.000E+00  0.000E+00  1.02970E+03  2.283E+00  5.527E+01  5.590E-01  1.302E+00
   1   13    6     8     1    2.0046E+02  1.8014E+00   2.0517E+02  6.509E+00  0.000E+00  0.000E+00  1.02503E+03  3.154E+00  4.574E+01  4.661E-01  1.288E+00
   1   13    5     8     2    2.0517E+02  1.1351E+00   2.1054E+02  6.509E+00  0.000E+00  0.000E+00  1.01881E+03  3.183E+00  4.616E+01  4.704E-01  8.044E-01
   1   13    4     8     3    2.1054E+02  2.2393E-01   2.1683E+02  6.509E+00  0.000E+00  0.000E+00  1.01259E+03  3.217E+00  4.664E+01  4.753E-01  1.570E-01
   1   13    3     8     4    2.1683E+02 -1.3206E+00   2.2466E+02  6.509E+00  0.000E+00  0.000E+00  1.00638E+03  3.256E+00  4.721E+01  4.811E+00 -9.149E-02
   1   13    2     8     5    2.2466E+02 -1.0239E+00   2.3219E+02  6.509E+00  0.000E+00  0.000E+00  1.00017E+03  3.298E+00  4.782E+01  4.873E+00 -7.004E-02
   1   13    1     8     6    2.3219E+02 -7.8595E-01   2.3688E+02  3.905E+00  0.000E+00  0.000E+00  9.95206E+02  3.331E+00  4.830E+01  2.953E+00 -8.872E-02



 UBDSV3 SAVING "     NETRECHARGE" ON UNIT 100 AT TIME STEP 15, STRESS PERIOD   2
 UBDSV3 SAVING "    NETDISCHARGE" ON UNIT 101 AT TIME STEP 15, STRESS PERIOD   2
 UBDSV3 SAVING "           GW ET" ON UNIT  61 AT TIME STEP 15, STRESS PERIOD   2
 UBDSV3 SAVING "    UZF RECHARGE" ON UNIT  61 AT TIME STEP 15, STRESS PERIOD   2
 UBDSV3 SAVING " SURFACE LEAKAGE" ON UNIT  61 AT TIME STEP 15, STRESS PERIOD   2
 UBDSV3 SAVING "       HORT+DUNN" ON UNIT  61 AT TIME STEP 15, STRESS PERIOD   2
 UBDSV3 SAVING "  STORAGE CHANGE" ON UNIT  61 AT TIME STEP 15, STRESS PERIOD   2


UNSATURATED ZONE PACKAGE VOLUMETRIC BUDGET FOR  TIME STEP    15 STRESS PERIOD    2
  ------------------------------------------------------------------------------



     CUMULATIVE VOLUMES      L**3       RATES FOR THIS TIME STEP      L**3/T
     ------------------                 ------------------------

           IN:                                      IN:
           ---                                      ---
        INFILTRATION =    15242399.1787          INFILTRATION =           2.9000

          OUT:                                     OUT:
          ----                                     ----
              UZF ET =      655788.0464                UZF ET =           0.4435
        UZF RECHARGE =     7649197.3225          UZF RECHARGE =           0.0012

            IN - OUT =     6937413.8098              IN - OUT =           2.4553

          STORAGE:                                 STORAGE:
          --------                                 --------
      STORAGE CHANGE =     6937413.8052        STORAGE CHANGE =           2.4553

 PERCENT DISCREPANCY IS DIFFERENCE BETWEEN IN-OUT MINUS CHANGE IN STORAGE
 DIVIDED BY THE AVERAGE OF IN AND OUT TIMES 100

 PERCENT DISCREPANCY =           0.00     PERCENT DISCREPANCY =           0.00






1
              HEAD IN LAYER   1 AT END OF TIME STEP  15 IN STRESS PERIOD    2
  ---------------------------------------------------------------------------

           1       2       3       4       5       6       7       8       9      10
 ...................................................................................
   1  1032.66 1029.47 6999.00 6999.00 6999.00 6999.00 6999.00 6999.00 6999.00 6999.00
   2  1029.83 1025.51 1023.58 6999.00 6999.00 1022.24 1022.51 1022.67 6999.00 6999.00
   3  6999.00 1022.61 1021.52 1020.64 1020.64 1021.10 1021.76 1021.97 6999.00 6999.00
   4  1020.46 1020.59 1019.96 1019.21 1019.08 1019.15 1019.89 1021.33 1021.25 6999.00
   5  1019.58 1018.93 1018.26 1017.60 1017.79 1018.46 1018.97 1019.75 1020.63 1021.43
   6  1018.67 1017.72 1016.71 1015.00 1015.48 1017.57 1018.55 1019.45 1020.16 1021.41
   7  1018.02 1016.69 1015.62 1013.79 1014.46 1016.95 1018.24 1018.87 1019.91 6999.00
   8  6999.00 1015.69 1014.88 1013.11 1013.92 1016.55 1017.80 1018.72 1020.19 6999.00
   9  6999.00 1014.65 1014.26 1012.79 1013.71 1016.32 1017.60 1018.94 1021.04 6999.00
  10  6999.00 1013.48 1013.65 1012.92 1014.00 1016.61 1018.15 1019.84 1022.25 1023.10
  11  6999.00 1011.34 1012.51 1014.07 1015.55 1017.63 1019.53 1021.90 1024.79 6999.00
  12  1001.28 1006.46 1010.18 1013.27 1016.03 1019.01 1021.74 1025.95 1029.53 6999.00
  13   995.47 1000.38 1006.66 1012.12 1016.40 1021.16 1025.79 1031.11 1034.10 6999.00
  14  6999.00 1005.84 1008.68 1012.98 1017.16 1021.47 1026.60 1032.55 1037.26 6999.00
  15  6999.00 6999.00 1012.27 1014.75 1017.88 1020.68 6999.00 6999.00 6999.00 6999.00

 HEAD WILL BE SAVED ON UNIT   58 AT END OF TIME STEP   15, STRESS PERIOD    2
1
  VOLUMETRIC BUDGET FOR ENTIRE MODEL AT END OF TIME STEP   15, STRESS PERIOD   2
  ------------------------------------------------------------------------------

     CUMULATIVE VOLUMES      L**3       RATES FOR THIS TIME STEP      L**3/T
     ------------------                 ------------------------

           IN:                                      IN:
           ---                                      ---
             STORAGE =    88242208.0000               STORAGE =          33.2025
       CONSTANT HEAD =           0.0000         CONSTANT HEAD =           0.0000
               WELLS =           0.0000                 WELLS =           0.0000
     HEAD DEP BOUNDS =     1544113.7500       HEAD DEP BOUNDS =           0.2941
      STREAM LEAKAGE =    80918512.0000        STREAM LEAKAGE =          16.1507
        UZF RECHARGE =     7649202.5000          UZF RECHARGE =       1.1749E-03
               GW ET =           0.0000                 GW ET =           0.0000
     SURFACE LEAKAGE =           0.0000       SURFACE LEAKAGE =           0.0000

            TOTAL IN =   178354032.0000              TOTAL IN =          49.6484

          OUT:                                     OUT:
          ----                                     ----
             STORAGE =      556942.9375               STORAGE =       2.2892E-02
       CONSTANT HEAD =           0.0000         CONSTANT HEAD =           0.0000
               WELLS =   131399992.0000                 WELLS =          40.0000
     HEAD DEP BOUNDS =     1501063.7500       HEAD DEP BOUNDS =           0.2839
      STREAM LEAKAGE =    25246450.0000        STREAM LEAKAGE =           3.1304
        UZF RECHARGE =           0.0000          UZF RECHARGE =           0.0000
               GW ET =    19652474.0000                 GW ET =           6.2111
     SURFACE LEAKAGE =           0.0000       SURFACE LEAKAGE =           0.0000

           TOTAL OUT =   178356928.0000             TOTAL OUT =          49.6483

            IN - OUT =       -2896.0000              IN - OUT =       1.0681E-04

 PERCENT DISCREPANCY =          -0.00     PERCENT DISCREPANCY =           0.00






         TIME SUMMARY AT END OF TIME STEP   15 IN STRESS PERIOD    2
                    SECONDS     MINUTES      HOURS       DAYS        YEARS
                    -----------------------------------------------------------
   TIME STEP LENGTH 3.14103E+05  5235.0      87.251      3.6354     9.95332E-03
 STRESS PERIOD TIME 2.62800E+06  43800.      730.00      30.417     8.32763E-02
         TOTAL TIME 5.25600E+06  87600.      1460.0      60.833     0.16655    
1
1
                            STRESS PERIOD NO.    3, LENGTH =   2628000.    
                            -----------------------------------------------

                              NUMBER OF TIME STEPS =    15

                               MULTIPLIER FOR DELT =     1.100

                            INITIAL TIME STEP SIZE =   82713.07    

 WELL NO.  LAYER   ROW   COL   STRESS RATE         
 --------------------------------------------------
      1      1      6      4      -4.000    
      2      1      6      5      -4.000    
      3      1      7      4      -4.000    
      4      1      7      5      -4.000    
      5      1      8      4      -4.000    
      6      1      8      5      -4.000    
      7      1      9      4      -4.000    
      8      1      9      5      -4.000    
      9      1     10      4      -4.000    
     10      1     10      5      -4.000    

     10 WELLS

 REUSING NON-PARAMETER GHB CELLS FROM LAST STRESS PERIOD

      2 GHB CELLS

 REUSING STREAM SEGMENT DATA FROM LAST STRESS PERIOD



            AREAL INFILTRATION RATE
 READING ON UNIT   19 WITH FORMAT: (10F4.0)            

            1           2           3           4           5           6           7           8           9          10
 ........................................................................................................................
   1   1.0000E-08  2.0000E-08   0.000       0.000       0.000       0.000       0.000       0.000       0.000       0.000    
   2   2.0000E-08  1.0000E-08  2.0000E-08   0.000       0.000      8.0000E-08  8.0000E-08  5.0000E-08   0.000       0.000    
   3    0.000      5.0000E-08  1.0000E-08  1.0000E-08  8.0000E-08  8.0000E-08  5.0000E-08  5.0000E-08   0.000       0.000    
   4   8.0000E-08  5.0000E-08  1.0000E-08  1.0000E-08  1.0000E-08  1.0000E-08  1.0000E-08  1.0000E-08  2.0000E-08   0.000    
   5   8.0000E-08  5.0000E-08  1.0000E-08  1.0000E-08  1.0000E-08  1.0000E-08  1.0000E-08  1.0000E-08  1.0000E-08  1.0000E-08
   6   8.0000E-08  5.0000E-08  5.0000E-08  2.0000E-08  2.0000E-08  1.0000E-08  1.0000E-08  1.0000E-08  1.0000E-08  5.0000E-08
   7   8.0000E-08  5.0000E-08  5.0000E-08  2.0000E-08  2.0000E-08  1.0000E-08  1.0000E-08  2.0000E-08  2.0000E-08   0.000    
   8    0.000      5.0000E-08  5.0000E-08  2.0000E-08  2.0000E-08  1.0000E-08  1.0000E-08  2.0000E-08  5.0000E-08   0.000    
   9    0.000      5.0000E-08  5.0000E-08  2.0000E-08  2.0000E-08  1.0000E-08  1.0000E-08  2.0000E-08  5.0000E-08   0.000    
  10    0.000      5.0000E-08  5.0000E-08  2.0000E-08  2.0000E-08  1.0000E-08  1.0000E-08  2.0000E-08  5.0000E-08  8.0000E-08
  11    0.000      1.0000E-08  1.0000E-08  1.0000E-08  1.0000E-08  1.0000E-08  1.0000E-08  2.0000E-08  5.0000E-08   0.000    
  12   1.0000E-08  1.0000E-08  1.0000E-08  1.0000E-08  1.0000E-08  1.0000E-08  1.0000E-08  1.0000E-08  2.0000E-08   0.000    
  13   1.0000E-08  1.0000E-08  2.0000E-08  2.0000E-08  2.0000E-08  2.0000E-08  2.0000E-08  1.0000E-08  1.0000E-08   0.000    
  14    0.000      2.0000E-08  5.0000E-08  5.0000E-08  5.0000E-08  5.0000E-08  5.0000E-08  2.0000E-08  1.0000E-08   0.000    
  15    0.000       0.000      8.0000E-08  8.0000E-08  8.0000E-08  8.0000E-08   0.000       0.000       0.000       0.000    

USING ET RATE FROM PREVIOUS STRESS PERIOD. CURRENT PERIOD IS:       3

 USING ET EXTINCTION DEPTH FROM PREVIOUS STRESS PERIOD. CURRENT PERIOD IS:       3

 USING EXTINCTION WATER CONTENT FROM PREVIOUS STRESS PERIOD. CURRENT PERIOD IS:       3
 
 SOLVING FOR HEAD 
                                                   Max.-Head-Change                         Max.-Flux-Residual
  Residual-Control   Outer-Iter.   Inner-Iter.     Column Row Layer    Maximum-Head-Change  Column Row Layer    Maximum-Flux-Residual          L2-NORM 
          0                 1           2             4    8     1      -0.4667385414E-01       4    8    1        -0.2584744098E+01      0.7172819263E+01
          0                 2           2             4    8     1       0.4624928371E-02       4    8    1         0.2584726012E+00      0.7165531448E+00
          0                 3           2             4    8     1      -0.4124633086E-03       4    8    1        -0.2326255475E-01      0.6447267824E-01
          0                 4           1             4    8     1       0.3273852277E-04       4    8    1         0.1863330972E-02      0.5163896305E-02

    ------------------------------------------------
       NWT REQUIRED            4 OUTER ITERATIONS 
       AND A TOTAL OF          7 INNER ITERATIONS.
    ------------------------------------------------

 OUTPUT CONTROL FOR STRESS PERIOD    3   TIME STEP    1
    PRINT BUDGET
    SAVE BUDGET

            WELLS   PERIOD    3   STEP   1
 WELL      1   LAYER   1   ROW     6   COL     4   RATE    -4.00000    
 WELL      2   LAYER   1   ROW     6   COL     5   RATE    -4.00000    
 WELL      3   LAYER   1   ROW     7   COL     4   RATE    -4.00000    
 WELL      4   LAYER   1   ROW     7   COL     5   RATE    -4.00000    
 WELL      5   LAYER   1   ROW     8   COL     4   RATE    -4.00000    
 WELL      6   LAYER   1   ROW     8   COL     5   RATE    -4.00000    
 WELL      7   LAYER   1   ROW     9   COL     4   RATE    -4.00000    
 WELL      8   LAYER   1   ROW     9   COL     5   RATE    -4.00000    
 WELL      9   LAYER   1   ROW    10   COL     4   RATE    -4.00000    
 WELL     10   LAYER   1   ROW    10   COL     5   RATE    -4.00000    

  HEAD DEP BOUNDS   PERIOD    3   STEP     1
 BOUNDARY      1   LAYER   1   ROW    13   COL     1   RATE   -0.284041    
 BOUNDARY      2   LAYER   1   ROW    14   COL     9   RATE    0.294089    



 STREAM LISTING     PERIOD      3   STEP        1

 LAYER ROW COL. STREAM  RCH.  FLOW INTO     FLOW TO   FLOW OUT OF   OVRLND.     DIRECT     STREAM       STREAM     STREAM     STREAM   STREAMBED  STREAMBED
                SEG.NO.  NO.  STRM. RCH.    AQUIFER    STRM. RCH.    RUNOFF     PRECIP       ET          HEAD       DEPTH      WIDTH   CONDCTNC.   GRADIENT

   1    1    1     1     1    2.5000E+01  2.4674E-01   2.5446E+01  6.931E-01  0.000E+00  0.000E+00  1.09423E+03  1.183E+00  1.311E+01  5.898E-02  1.394E+00
   1    2    2     1     2    2.5446E+01  3.8786E-01   2.6137E+01  1.078E+00  0.000E+00  0.000E+00  1.08925E+03  1.192E+00  1.322E+01  9.253E-02  1.397E+00
   1    3    3     1     3    2.6137E+01  3.3630E-01   2.6724E+01  9.241E-01  0.000E+00  0.000E+00  1.08362E+03  1.201E+00  1.334E+01  8.005E-02  1.400E+00
   1    3    4     1     4    2.6724E+01  3.1418E-01   2.7265E+01  8.548E-01  0.000E+00  0.000E+00  1.07862E+03  1.209E+00  1.345E+01  7.464E-02  1.403E+00
   1    4    5     2     1    1.7265E+01  3.0989E-01   1.7617E+01  6.623E-01  0.000E+00  0.000E+00  1.07291E+03  9.729E-01  1.200E+01  7.800E-02  1.324E+00
   1    5    6     2     2    1.7617E+01  2.3900E-01   1.7888E+01  5.094E-01  0.000E+00  0.000E+00  1.06749E+03  9.833E-01  1.200E+01  6.000E-02  1.328E+00
   1    6    6     2     3    1.7888E+01  2.3954E-01   1.8158E+01  5.094E-01  0.000E+00  0.000E+00  1.06278E+03  9.923E-01  1.200E+01  6.000E-02  1.331E+00
   1    7    6     2     4    1.8158E+01  2.4007E-01   1.8427E+01  5.094E-01  0.000E+00  0.000E+00  1.05808E+03  1.001E+00  1.200E+01  6.000E-02  1.334E+00
   1    8    6     2     5    1.8427E+01  2.4060E-01   1.8696E+01  5.094E-01  0.000E+00  0.000E+00  1.05337E+03  1.010E+00  1.200E+01  6.000E-02  1.337E+00
   1    3    5     3     1    1.0000E+01  2.8252E-01   1.1990E+01  2.273E+00  0.000E+00  0.000E+00  1.07555E+03  1.909E+00  9.636E+00  7.227E-02  1.955E+00
   1    3    6     3     2    1.1990E+01  2.4905E-01   1.4014E+01  2.273E+00  0.000E+00  0.000E+00  1.07264E+03  1.727E+00  8.909E+00  6.682E-02  1.864E+00
   1    3    7     3     3    1.4014E+01  1.9718E-01   1.5862E+01  2.045E+00  0.000E+00  0.000E+00  1.06987E+03  1.555E+00  8.218E+00  5.547E-02  1.777E+00
   1    4    8     3     4    1.5862E+01  2.2567E-01   1.8364E+01  2.727E+00  0.000E+00  0.000E+00  1.06682E+03  1.364E+00  7.455E+00  6.709E-02  1.682E+00
   1    5    8     3     5    1.8364E+01  1.5790E-01   2.0479E+01  2.273E+00  0.000E+00  0.000E+00  1.06362E+03  1.164E+00  6.655E+00  4.991E-02  1.582E+00
   1    6    8     3     6    2.0479E+01  5.5980E-02   2.1332E+01  9.091E-01  0.000E+00  0.000E+00  1.06158E+03  1.036E+00  6.145E+00  1.844E-02  1.518E+00
   1    5   10     4     1    1.0000E+01  9.1150E-02   1.0392E+01  4.830E-01  0.000E+00  0.000E+00  1.07837E+03  6.460E-01  1.000E+01  2.500E-02  1.215E+00
   1    5    9     4     2    1.0392E+01  1.8340E-01   1.1174E+01  9.659E-01  0.000E+00  0.000E+00  1.07158E+03  6.681E-01  1.000E+01  5.000E-02  1.223E+00
   1    6    8     4     3    1.1174E+01  1.2924E-01   1.1721E+01  6.761E-01  0.000E+00  0.000E+00  1.06387E+03  6.925E-01  1.000E+01  3.500E-02  1.231E+00
   1    6    8     5     1    3.3053E+01  5.0019E-01   3.3379E+01  8.267E-01  0.000E+00  0.000E+00  1.05902E+03  1.022E+00  3.109E+01  1.244E-01  1.341E+00
   1    7    7     5     2    3.3379E+01  6.2996E-01   3.3783E+01  1.033E+00  0.000E+00  0.000E+00  1.05453E+03  1.026E+00  3.129E+01  1.565E-01  1.342E+00
   1    8    7     5     3    3.3783E+01  4.4406E-01   3.4062E+01  7.233E-01  0.000E+00  0.000E+00  1.05028E+03  1.030E+00  3.148E+01  1.102E-01  1.343E+00
   1    8    6     5     4    3.4062E+01  3.1872E-01   3.4260E+01  5.167E-01  0.000E+00  0.000E+00  1.04728E+03  1.032E+00  3.162E+01  7.904E-02  1.344E+00
   1    9    6     6     1    5.2956E+01  2.9581E-01   5.4296E+01  1.636E+00  0.000E+00  0.000E+00  1.04466E+03  1.930E+00  1.200E+01  6.000E-02  1.643E+00
   1   10    7     6     2    5.4296E+01  2.9754E-01   5.5635E+01  1.636E+00  0.000E+00  0.000E+00  1.04014E+03  1.959E+00  1.200E+01  6.000E-02  1.653E+00
   1   11    7     6     3    5.5635E+01  2.9925E-01   5.6972E+01  1.636E+00  0.000E+00  0.000E+00  1.03562E+03  1.987E+00  1.200E+01  6.000E-02  1.662E+00
   1   12    7     6     4    5.6972E+01  3.0094E-01   5.8308E+01  1.636E+00  0.000E+00  0.000E+00  1.03111E+03  2.016E+00  1.200E+01  6.000E-02  1.672E+00
   1   13    7     6     5    5.8308E+01  5.1608E-02   5.8911E+01  6.545E-01  0.000E+00  0.000E+00  1.02794E+03  2.036E+00  1.200E+01  2.400E-02  7.168E-01
   1   14    9     7     1    1.5000E+02  1.4610E+00   1.5008E+02  1.540E+00  0.000E+00  0.000E+00  1.03987E+03  2.291E+00  5.531E+01  5.595E-01  8.704E-01
   1   13    8     7     2    1.5008E+02  2.2643E+00   1.4951E+02  1.694E+00  0.000E+00  0.000E+00  1.03479E+03  2.290E+00  5.531E+01  6.154E-01  1.227E+00
   1   13    7     7     3    1.4951E+02  2.1877E+00   1.4886E+02  1.540E+00  0.000E+00  0.000E+00  1.02971E+03  2.287E+00  5.529E+01  5.593E-01  1.304E+00
   1   13    6     8     1    2.0777E+02  1.8504E+00   2.1412E+02  8.196E+00  0.000E+00  0.000E+00  1.02508E+03  3.201E+00  4.642E+01  4.730E-01  1.304E+00
   1   13    5     8     2    2.1412E+02  1.1837E+00   2.2113E+02  8.196E+00  0.000E+00  0.000E+00  1.01886E+03  3.239E+00  4.696E+01  4.785E-01  8.245E-01
   1   13    4     8     3    2.2113E+02  2.6145E-01   2.2907E+02  8.196E+00  0.000E+00  0.000E+00  1.01265E+03  3.280E+00  4.756E+01  4.846E-01  1.798E-01
   1   13    3     8     4    2.2907E+02 -1.0238E+00   2.3829E+02  8.196E+00  0.000E+00  0.000E+00  1.00645E+03  3.326E+00  4.823E+01  4.915E+00 -6.944E-02
   1   13    2     8     5    2.3829E+02 -6.9680E-01   2.4718E+02  8.196E+00  0.000E+00  0.000E+00  1.00025E+03  3.374E+00  4.892E+01  4.985E+00 -4.659E-02
   1   13    1     8     6    2.4718E+02 -5.7031E-01   2.5267E+02  4.918E+00  0.000E+00  0.000E+00  9.95286E+02  3.411E+00  4.946E+01  3.024E+00 -6.286E-02



 UBDSV3 SAVING "     NETRECHARGE" ON UNIT 100 AT TIME STEP  1, STRESS PERIOD   3
 UBDSV3 SAVING "    NETDISCHARGE" ON UNIT 101 AT TIME STEP  1, STRESS PERIOD   3
 UBDSV3 SAVING "           GW ET" ON UNIT  61 AT TIME STEP  1, STRESS PERIOD   3
 UBDSV3 SAVING "    UZF RECHARGE" ON UNIT  61 AT TIME STEP  1, STRESS PERIOD   3
 UBDSV3 SAVING " SURFACE LEAKAGE" ON UNIT  61 AT TIME STEP  1, STRESS PERIOD   3
 UBDSV3 SAVING "       HORT+DUNN" ON UNIT  61 AT TIME STEP  1, STRESS PERIOD   3
 UBDSV3 SAVING "  STORAGE CHANGE" ON UNIT  61 AT TIME STEP  1, STRESS PERIOD   3


UNSATURATED ZONE PACKAGE VOLUMETRIC BUDGET FOR  TIME STEP     1 STRESS PERIOD    3
  ------------------------------------------------------------------------------



     CUMULATIVE VOLUMES      L**3       RATES FOR THIS TIME STEP      L**3/T
     ------------------                 ------------------------

           IN:                                      IN:
           ---                                      ---
        INFILTRATION =    15482267.0713          INFILTRATION =           2.9000

          OUT:                                     OUT:
          ----                                     ----
              UZF ET =      694841.7718                UZF ET =           0.4722
        UZF RECHARGE =     7650836.4736          UZF RECHARGE =           0.0198

            IN - OUT =     7136588.8259              IN - OUT =           2.4080

          STORAGE:                                 STORAGE:
          --------                                 --------
      STORAGE CHANGE =     7136588.8274        STORAGE CHANGE =           2.4080

 PERCENT DISCREPANCY IS DIFFERENCE BETWEEN IN-OUT MINUS CHANGE IN STORAGE
 DIVIDED BY THE AVERAGE OF IN AND OUT TIMES 100

 PERCENT DISCREPANCY =           0.00     PERCENT DISCREPANCY =           0.00






1
  VOLUMETRIC BUDGET FOR ENTIRE MODEL AT END OF TIME STEP    1, STRESS PERIOD   3
  ------------------------------------------------------------------------------

     CUMULATIVE VOLUMES      L**3       RATES FOR THIS TIME STEP      L**3/T
     ------------------                 ------------------------

           IN:                                      IN:
           ---                                      ---
             STORAGE =    90955792.0000               STORAGE =          32.8072
       CONSTANT HEAD =           0.0000         CONSTANT HEAD =           0.0000
               WELLS =           0.0000                 WELLS =           0.0000
     HEAD DEP BOUNDS =     1568438.7500       HEAD DEP BOUNDS =           0.2941
      STREAM LEAKAGE =    82281024.0000        STREAM LEAKAGE =          16.4728
        UZF RECHARGE =     7650841.5000          UZF RECHARGE =       1.9817E-02
               GW ET =           0.0000                 GW ET =           0.0000
     SURFACE LEAKAGE =           0.0000       SURFACE LEAKAGE =           0.0000

            TOTAL IN =   182456096.0000              TOTAL IN =          49.5939

          OUT:                                     OUT:
          ----                                     ----
             STORAGE =      624103.0625               STORAGE =           0.8120
       CONSTANT HEAD =           0.0000         CONSTANT HEAD =           0.0000
               WELLS =   134708512.0000                 WELLS =          40.0000
     HEAD DEP BOUNDS =     1524557.6250       HEAD DEP BOUNDS =           0.2840
      STREAM LEAKAGE =    25435940.0000        STREAM LEAKAGE =           2.2909
        UZF RECHARGE =           0.0000          UZF RECHARGE =           0.0000
               GW ET =    20166004.0000                 GW ET =           6.2086
     SURFACE LEAKAGE =           0.0000       SURFACE LEAKAGE =           0.0000

           TOTAL OUT =   182459104.0000             TOTAL OUT =          49.5955

            IN - OUT =       -3008.0000              IN - OUT =      -1.6365E-03

 PERCENT DISCREPANCY =          -0.00     PERCENT DISCREPANCY =          -0.00






         TIME SUMMARY AT END OF TIME STEP    1 IN STRESS PERIOD    3
                    SECONDS     MINUTES      HOURS       DAYS        YEARS
                    -----------------------------------------------------------
   TIME STEP LENGTH  82713.      1378.6      22.976     0.95733     2.62102E-03
 STRESS PERIOD TIME  82713.      1378.6      22.976     0.95733     2.62102E-03
         TOTAL TIME 5.33871E+06  88979.      1483.0      61.791     0.16917    
1
 
 SOLVING FOR HEAD 
                                                   Max.-Head-Change                         Max.-Flux-Residual
  Residual-Control   Outer-Iter.   Inner-Iter.     Column Row Layer    Maximum-Head-Change  Column Row Layer    Maximum-Flux-Residual          L2-NORM 
          0                 1           2             4    8     1      -0.5100904626E-01       4    8    1        -0.2569620947E+01      0.7123653138E+01
          0                 2           2             4    8     1       0.5054499012E-02       4    8    1         0.2569599791E+00      0.7117493187E+00
          0                 3           2             4    8     1      -0.4507736012E-03       4    8    1        -0.2312642176E-01      0.6404281776E-01
          0                 4           1             4    8     1       0.3577933172E-04       4    8    1         0.1852426688E-02      0.5129582018E-02

    ------------------------------------------------
       NWT REQUIRED            4 OUTER ITERATIONS 
       AND A TOTAL OF          7 INNER ITERATIONS.
    ------------------------------------------------

 NO OUTPUT CONTROL FOR STRESS PERIOD    3   TIME STEP    2
 
 SOLVING FOR HEAD 
                                                   Max.-Head-Change                         Max.-Flux-Residual
  Residual-Control   Outer-Iter.   Inner-Iter.     Column Row Layer    Maximum-Head-Change  Column Row Layer    Maximum-Flux-Residual          L2-NORM 
          0                 1           2             4    8     1      -0.5570854508E-01       4    8    1        -0.2552996883E+01      0.7071368453E+01
          0                 2           2             4    8     1       0.5520166930E-02       4    8    1         0.2552972089E+00      0.7066244562E+00
          0                 3           2             4    8     1      -0.4923031642E-03       4    8    1        -0.2297677599E-01      0.6358384858E-01
          0                 4           1             4    8     1       0.3907566467E-04       4    8    1         0.1840440036E-02      0.5092785286E-02

    ------------------------------------------------
       NWT REQUIRED            4 OUTER ITERATIONS 
       AND A TOTAL OF          7 INNER ITERATIONS.
    ------------------------------------------------

 NO OUTPUT CONTROL FOR STRESS PERIOD    3   TIME STEP    3
 
 SOLVING FOR HEAD 
                                                   Max.-Head-Change                         Max.-Flux-Residual
  Residual-Control   Outer-Iter.   Inner-Iter.     Column Row Layer    Maximum-Head-Change  Column Row Layer    Maximum-Flux-Residual          L2-NORM 
          0                 1           2             4    8     1      -0.6079458968E-01       4    8    1        -0.2534727466E+01      0.7015846301E+01
          0                 2           2             4    8     1       0.6024135163E-02       4    8    1         0.2534698361E+00      0.7010741636E+00
          0                 3           2             4    8     1      -0.5372484767E-03       4    8    1        -0.2281231666E-01      0.6307482432E-01
          0                 4           1             4    8     1       0.4264311613E-04       4    8    1         0.1827266807E-02      0.5051880522E-02

    ------------------------------------------------
       NWT REQUIRED            4 OUTER ITERATIONS 
       AND A TOTAL OF          7 INNER ITERATIONS.
    ------------------------------------------------

 NO OUTPUT CONTROL FOR STRESS PERIOD    3   TIME STEP    4
 
 SOLVING FOR HEAD 
                                                   Max.-Head-Change                         Max.-Flux-Residual
  Residual-Control   Outer-Iter.   Inner-Iter.     Column Row Layer    Maximum-Head-Change  Column Row Layer    Maximum-Flux-Residual          L2-NORM 
          0                 1           2             4    8     1      -0.6628944492E-01       4    8    1        -0.2514680187E+01      0.6956960743E+01
          0                 2           2             4    8     1       0.6568609115E-02       4    8    1         0.2514645977E+00      0.6952177850E+00
          0                 3           2             4    8     1      -0.5858062298E-03       4    8    1        -0.2263185019E-01      0.6255797295E-01
          0                 4           1             4    8     1       0.4649729774E-04       4    8    1         0.1812811387E-02      0.5010653858E-02

    ------------------------------------------------
       NWT REQUIRED            4 OUTER ITERATIONS 
       AND A TOTAL OF          7 INNER ITERATIONS.
    ------------------------------------------------

 OUTPUT CONTROL FOR STRESS PERIOD    3   TIME STEP    5
    PRINT BUDGET
    SAVE BUDGET

            WELLS   PERIOD    3   STEP   5
 WELL      1   LAYER   1   ROW     6   COL     4   RATE    -4.00000    
 WELL      2   LAYER   1   ROW     6   COL     5   RATE    -4.00000    
 WELL      3   LAYER   1   ROW     7   COL     4   RATE    -4.00000    
 WELL      4   LAYER   1   ROW     7   COL     5   RATE    -4.00000    
 WELL      5   LAYER   1   ROW     8   COL     4   RATE    -4.00000    
 WELL      6   LAYER   1   ROW     8   COL     5   RATE    -4.00000    
 WELL      7   LAYER   1   ROW     9   COL     4   RATE    -4.00000    
 WELL      8   LAYER   1   ROW     9   COL     5   RATE    -4.00000    
 WELL      9   LAYER   1   ROW    10   COL     4   RATE    -4.00000    
 WELL     10   LAYER   1   ROW    10   COL     5   RATE    -4.00000    

  HEAD DEP BOUNDS   PERIOD    3   STEP     5
 BOUNDARY      1   LAYER   1   ROW    13   COL     1   RATE   -0.284513    
 BOUNDARY      2   LAYER   1   ROW    14   COL     9   RATE    0.294147    



 STREAM LISTING     PERIOD      3   STEP        5

 LAYER ROW COL. STREAM  RCH.  FLOW INTO     FLOW TO   FLOW OUT OF   OVRLND.     DIRECT     STREAM       STREAM     STREAM     STREAM   STREAMBED  STREAMBED
                SEG.NO.  NO.  STRM. RCH.    AQUIFER    STRM. RCH.    RUNOFF     PRECIP       ET          HEAD       DEPTH      WIDTH   CONDCTNC.   GRADIENT

   1    1    1     1     1    2.5000E+01  2.4674E-01   2.5446E+01  6.931E-01  0.000E+00  0.000E+00  1.09423E+03  1.183E+00  1.311E+01  5.898E-02  1.394E+00
   1    2    2     1     2    2.5446E+01  3.8786E-01   2.6137E+01  1.078E+00  0.000E+00  0.000E+00  1.08925E+03  1.192E+00  1.322E+01  9.253E-02  1.397E+00
   1    3    3     1     3    2.6137E+01  3.3630E-01   2.6724E+01  9.241E-01  0.000E+00  0.000E+00  1.08362E+03  1.201E+00  1.334E+01  8.005E-02  1.400E+00
   1    3    4     1     4    2.6724E+01  3.1418E-01   2.7265E+01  8.548E-01  0.000E+00  0.000E+00  1.07862E+03  1.209E+00  1.345E+01  7.464E-02  1.403E+00
   1    4    5     2     1    1.7265E+01  3.0989E-01   1.7617E+01  6.623E-01  0.000E+00  0.000E+00  1.07291E+03  9.729E-01  1.200E+01  7.800E-02  1.324E+00
   1    5    6     2     2    1.7617E+01  2.3900E-01   1.7888E+01  5.094E-01  0.000E+00  0.000E+00  1.06749E+03  9.833E-01  1.200E+01  6.000E-02  1.328E+00
   1    6    6     2     3    1.7888E+01  2.3954E-01   1.8158E+01  5.094E-01  0.000E+00  0.000E+00  1.06278E+03  9.923E-01  1.200E+01  6.000E-02  1.331E+00
   1    7    6     2     4    1.8158E+01  2.4007E-01   1.8427E+01  5.094E-01  0.000E+00  0.000E+00  1.05808E+03  1.001E+00  1.200E+01  6.000E-02  1.334E+00
   1    8    6     2     5    1.8427E+01  2.4060E-01   1.8696E+01  5.094E-01  0.000E+00  0.000E+00  1.05337E+03  1.010E+00  1.200E+01  6.000E-02  1.337E+00
   1    3    5     3     1    1.0000E+01  2.8252E-01   1.1990E+01  2.273E+00  0.000E+00  0.000E+00  1.07555E+03  1.909E+00  9.636E+00  7.227E-02  1.955E+00
   1    3    6     3     2    1.1990E+01  2.4905E-01   1.4014E+01  2.273E+00  0.000E+00  0.000E+00  1.07264E+03  1.727E+00  8.909E+00  6.682E-02  1.864E+00
   1    3    7     3     3    1.4014E+01  1.9718E-01   1.5862E+01  2.045E+00  0.000E+00  0.000E+00  1.06987E+03  1.555E+00  8.218E+00  5.547E-02  1.777E+00
   1    4    8     3     4    1.5862E+01  2.2567E-01   1.8364E+01  2.727E+00  0.000E+00  0.000E+00  1.06682E+03  1.364E+00  7.455E+00  6.709E-02  1.682E+00
   1    5    8     3     5    1.8364E+01  1.5790E-01   2.0479E+01  2.273E+00  0.000E+00  0.000E+00  1.06362E+03  1.164E+00  6.655E+00  4.991E-02  1.582E+00
   1    6    8     3     6    2.0479E+01  5.5980E-02   2.1332E+01  9.091E-01  0.000E+00  0.000E+00  1.06158E+03  1.036E+00  6.145E+00  1.844E-02  1.518E+00
   1    5   10     4     1    1.0000E+01  9.1150E-02   1.0392E+01  4.830E-01  0.000E+00  0.000E+00  1.07837E+03  6.460E-01  1.000E+01  2.500E-02  1.215E+00
   1    5    9     4     2    1.0392E+01  1.8340E-01   1.1174E+01  9.659E-01  0.000E+00  0.000E+00  1.07158E+03  6.681E-01  1.000E+01  5.000E-02  1.223E+00
   1    6    8     4     3    1.1174E+01  1.2924E-01   1.1721E+01  6.761E-01  0.000E+00  0.000E+00  1.06387E+03  6.925E-01  1.000E+01  3.500E-02  1.231E+00
   1    6    8     5     1    3.3053E+01  5.0019E-01   3.3379E+01  8.267E-01  0.000E+00  0.000E+00  1.05902E+03  1.022E+00  3.109E+01  1.244E-01  1.341E+00
   1    7    7     5     2    3.3379E+01  6.2996E-01   3.3783E+01  1.033E+00  0.000E+00  0.000E+00  1.05453E+03  1.026E+00  3.129E+01  1.565E-01  1.342E+00
   1    8    7     5     3    3.3783E+01  4.4406E-01   3.4062E+01  7.233E-01  0.000E+00  0.000E+00  1.05028E+03  1.030E+00  3.148E+01  1.102E-01  1.343E+00
   1    8    6     5     4    3.4062E+01  3.1872E-01   3.4260E+01  5.167E-01  0.000E+00  0.000E+00  1.04728E+03  1.032E+00  3.162E+01  7.904E-02  1.344E+00
   1    9    6     6     1    5.2956E+01  2.9581E-01   5.4296E+01  1.636E+00  0.000E+00  0.000E+00  1.04466E+03  1.930E+00  1.200E+01  6.000E-02  1.643E+00
   1   10    7     6     2    5.4296E+01  2.9754E-01   5.5635E+01  1.636E+00  0.000E+00  0.000E+00  1.04014E+03  1.959E+00  1.200E+01  6.000E-02  1.653E+00
   1   11    7     6     3    5.5635E+01  2.9925E-01   5.6972E+01  1.636E+00  0.000E+00  0.000E+00  1.03562E+03  1.987E+00  1.200E+01  6.000E-02  1.662E+00
   1   12    7     6     4    5.6972E+01  3.0094E-01   5.8308E+01  1.636E+00  0.000E+00  0.000E+00  1.03111E+03  2.016E+00  1.200E+01  6.000E-02  1.672E+00
   1   13    7     6     5    5.8308E+01  5.1611E-02   5.8911E+01  6.545E-01  0.000E+00  0.000E+00  1.02794E+03  2.036E+00  1.200E+01  2.400E-02  7.168E-01
   1   14    9     7     1    1.5000E+02  1.4618E+00   1.5008E+02  1.540E+00  0.000E+00  0.000E+00  1.03987E+03  2.291E+00  5.531E+01  5.595E-01  8.709E-01
   1   13    8     7     2    1.5008E+02  2.2649E+00   1.4951E+02  1.694E+00  0.000E+00  0.000E+00  1.03479E+03  2.290E+00  5.531E+01  6.154E-01  1.227E+00
   1   13    7     7     3    1.4951E+02  2.1877E+00   1.4886E+02  1.540E+00  0.000E+00  0.000E+00  1.02971E+03  2.287E+00  5.529E+01  5.593E-01  1.304E+00
   1   13    6     8     1    2.0777E+02  1.8513E+00   2.1412E+02  8.196E+00  0.000E+00  0.000E+00  1.02508E+03  3.201E+00  4.642E+01  4.730E-01  1.305E+00
   1   13    5     8     2    2.1412E+02  1.1950E+00   2.2112E+02  8.196E+00  0.000E+00  0.000E+00  1.01886E+03  3.239E+00  4.696E+01  4.785E-01  8.324E-01
   1   13    4     8     3    2.2112E+02  2.7259E-01   2.2904E+02  8.196E+00  0.000E+00  0.000E+00  1.01265E+03  3.280E+00  4.756E+01  4.846E-01  1.875E-01
   1   13    3     8     4    2.2904E+02 -1.0980E+00   2.3834E+02  8.196E+00  0.000E+00  0.000E+00  1.00645E+03  3.326E+00  4.823E+01  4.915E+00 -7.447E-02
   1   13    2     8     5    2.3834E+02 -8.0426E-01   2.4734E+02  8.196E+00  0.000E+00  0.000E+00  1.00025E+03  3.375E+00  4.893E+01  4.986E+00 -5.376E-02
   1   13    1     8     6    2.4734E+02 -6.0531E-01   2.5286E+02  4.918E+00  0.000E+00  0.000E+00  9.95287E+02  3.412E+00  4.948E+01  3.025E+00 -6.670E-02



 UBDSV3 SAVING "     NETRECHARGE" ON UNIT 100 AT TIME STEP  5, STRESS PERIOD   3
 UBDSV3 SAVING "    NETDISCHARGE" ON UNIT 101 AT TIME STEP  5, STRESS PERIOD   3
 UBDSV3 SAVING "           GW ET" ON UNIT  61 AT TIME STEP  5, STRESS PERIOD   3
 UBDSV3 SAVING "    UZF RECHARGE" ON UNIT  61 AT TIME STEP  5, STRESS PERIOD   3
 UBDSV3 SAVING " SURFACE LEAKAGE" ON UNIT  61 AT TIME STEP  5, STRESS PERIOD   3
 UBDSV3 SAVING "       HORT+DUNN" ON UNIT  61 AT TIME STEP  5, STRESS PERIOD   3
 UBDSV3 SAVING "  STORAGE CHANGE" ON UNIT  61 AT TIME STEP  5, STRESS PERIOD   3


UNSATURATED ZONE PACKAGE VOLUMETRIC BUDGET FOR  TIME STEP     5 STRESS PERIOD    3
  ------------------------------------------------------------------------------



     CUMULATIVE VOLUMES      L**3       RATES FOR THIS TIME STEP      L**3/T
     ------------------                 ------------------------

           IN:                                      IN:
           ---                                      ---
        INFILTRATION =    16706816.7383          INFILTRATION =           2.9000

          OUT:                                     OUT:
          ----                                     ----
              UZF ET =      910873.3582                UZF ET =           0.5349
        UZF RECHARGE =     7658507.6705          UZF RECHARGE =           0.0203

            IN - OUT =     8137435.7096              IN - OUT =           2.3448

          STORAGE:                                 STORAGE:
          --------                                 --------
      STORAGE CHANGE =     8137435.7013        STORAGE CHANGE =           2.3448

 PERCENT DISCREPANCY IS DIFFERENCE BETWEEN IN-OUT MINUS CHANGE IN STORAGE
 DIVIDED BY THE AVERAGE OF IN AND OUT TIMES 100

 PERCENT DISCREPANCY =           0.00     PERCENT DISCREPANCY =           0.00






1
  VOLUMETRIC BUDGET FOR ENTIRE MODEL AT END OF TIME STEP    5, STRESS PERIOD   3
  ------------------------------------------------------------------------------

     CUMULATIVE VOLUMES      L**3       RATES FOR THIS TIME STEP      L**3/T
     ------------------                 ------------------------

           IN:                                      IN:
           ---                                      ---
             STORAGE =   104785896.0000               STORAGE =          32.7224
       CONSTANT HEAD =           0.0000         CONSTANT HEAD =           0.0000
               WELLS =           0.0000                 WELLS =           0.0000
     HEAD DEP BOUNDS =     1692635.6250       HEAD DEP BOUNDS =           0.2941
      STREAM LEAKAGE =    89243456.0000        STREAM LEAKAGE =          16.4977
        UZF RECHARGE =     7658512.5000          UZF RECHARGE =       2.0295E-02
               GW ET =           0.0000                 GW ET =           0.0000
     SURFACE LEAKAGE =           0.0000       SURFACE LEAKAGE =           0.0000

            TOTAL IN =   203380496.0000              TOTAL IN =          49.5345

          OUT:                                     OUT:
          ----                                     ----
             STORAGE =      890930.8750               STORAGE =           0.5410
       CONSTANT HEAD =           0.0000         CONSTANT HEAD =           0.0000
               WELLS =   151598864.0000                 WELLS =          40.0000
     HEAD DEP BOUNDS =     1644624.6250       HEAD DEP BOUNDS =           0.2845
      STREAM LEAKAGE =    26463628.0000        STREAM LEAKAGE =           2.5076
        UZF RECHARGE =           0.0000          UZF RECHARGE =           0.0000
               GW ET =    22786168.0000                 GW ET =           6.2031
     SURFACE LEAKAGE =           0.0000       SURFACE LEAKAGE =           0.0000

           TOTAL OUT =   203384224.0000             TOTAL OUT =          49.5361

            IN - OUT =       -3728.0000              IN - OUT =      -1.6441E-03

 PERCENT DISCREPANCY =          -0.00     PERCENT DISCREPANCY =          -0.00






         TIME SUMMARY AT END OF TIME STEP    5 IN STRESS PERIOD    3
                    SECONDS     MINUTES      HOURS       DAYS        YEARS
                    -----------------------------------------------------------
   TIME STEP LENGTH 1.21100E+05  2018.3      33.639      1.4016     3.83743E-03
 STRESS PERIOD TIME 5.04972E+05  8416.2      140.27      5.8446     1.60016E-02
         TOTAL TIME 5.76097E+06  96016.      1600.3      66.678     0.18255    
1
 
 SOLVING FOR HEAD 
                                                   Max.-Head-Change                         Max.-Flux-Residual
  Residual-Control   Outer-Iter.   Inner-Iter.     Column Row Layer    Maximum-Head-Change  Column Row Layer    Maximum-Flux-Residual          L2-NORM 
          0                 1           2             4    8     1      -0.7221401390E-01       4    8    1        -0.2492693071E+01      0.6894600421E+01
          0                 2           2             4    8     1       0.7155659025E-02       4    8    1         0.2492652824E+00      0.6890947763E+00
          0                 3           2             4    8     1      -0.6381610648E-03       4    8    1        -0.2243391772E-01      0.6200947965E-01
          0                 4           1             4    8     1       0.5065286621E-04       4    8    1         0.1796956956E-02      0.4966765537E-02

    ------------------------------------------------
       NWT REQUIRED            4 OUTER ITERATIONS 
       AND A TOTAL OF          7 INNER ITERATIONS.
    ------------------------------------------------

 NO OUTPUT CONTROL FOR STRESS PERIOD    3   TIME STEP    6
 
 SOLVING FOR HEAD 
                                                   Max.-Head-Change                         Max.-Flux-Residual
  Residual-Control   Outer-Iter.   Inner-Iter.     Column Row Layer    Maximum-Head-Change  Column Row Layer    Maximum-Flux-Residual          L2-NORM 
          0                 1           2             4    8     1      -0.7858824100E-01       4    8    1        -0.2468617073E+01      0.6828684898E+01
          0                 2           2             4    8     1       0.7787259837E-02       4    8    1         0.2468569698E+00      0.6825961781E+00
          0                 3           2             4    8     1      -0.6944891251E-03       4    8    1        -0.2221717656E-01      0.6142677810E-01
          0                 4           1             4    8     1       0.5512380160E-04       4    8    1         0.1779595942E-02      0.4920124830E-02

    ------------------------------------------------
       NWT REQUIRED            4 OUTER ITERATIONS 
       AND A TOTAL OF          7 INNER ITERATIONS.
    ------------------------------------------------

 NO OUTPUT CONTROL FOR STRESS PERIOD    3   TIME STEP    7
 
 SOLVING FOR HEAD 
                                                   Max.-Head-Change                         Max.-Flux-Residual
  Residual-Control   Outer-Iter.   Inner-Iter.     Column Row Layer    Maximum-Head-Change  Column Row Layer    Maximum-Flux-Residual          L2-NORM 
          0                 1           2             4    8     1      -0.8542967702E-01       4    8    1        -0.2442285616E+01      0.6759115614E+01
          0                 2           2             4    8     1       0.8465148964E-02       4    8    1         0.2442229851E+00      0.6757135448E+00
          0                 3           2             4    8     1      -0.7549453737E-03       4    8    1        -0.2198012614E-01      0.6080912715E-01
          0                 4           1             4    8     1       0.5992240248E-04       4    8    1         0.1760608111E-02      0.4870707741E-02

    ------------------------------------------------
       NWT REQUIRED            4 OUTER ITERATIONS 
       AND A TOTAL OF          7 INNER ITERATIONS.
    ------------------------------------------------

 NO OUTPUT CONTROL FOR STRESS PERIOD    3   TIME STEP    8
 
 SOLVING FOR HEAD 
                                                   Max.-Head-Change                         Max.-Flux-Residual
  Residual-Control   Outer-Iter.   Inner-Iter.     Column Row Layer    Maximum-Head-Change  Column Row Layer    Maximum-Flux-Residual          L2-NORM 
          0                 1           2             4    8     1      -0.9275365445E-01       4    8    1        -0.2413546232E+01      0.6685826948E+01
          0                 2           2             4    8     1       0.9190843579E-02       4    8    1         0.2413480624E+00      0.6684424785E+00
          0                 3           2             4    8     1      -0.8196651384E-03       4    8    1        -0.2172139273E-01      0.6015615448E-01
          0                 4           1             4    8     1       0.6505941273E-04       4    8    1         0.1739883482E-02      0.4818403373E-02

    ------------------------------------------------
       NWT REQUIRED            4 OUTER ITERATIONS 
       AND A TOTAL OF          7 INNER ITERATIONS.
    ------------------------------------------------

 NO OUTPUT CONTROL FOR STRESS PERIOD    3   TIME STEP    9
 
 SOLVING FOR HEAD 
                                                   Max.-Head-Change                         Max.-Flux-Residual
  Residual-Control   Outer-Iter.   Inner-Iter.     Column Row Layer    Maximum-Head-Change  Column Row Layer    Maximum-Flux-Residual          L2-NORM 
          0                 1           2             4    8     1      -0.1005716210E+00       4    8    1        -0.2382234889E+01      0.6608758602E+01
          0                 2           2             4    8     1       0.9965475413E-02       4    8    1         0.2382157782E+00      0.6607785424E+00
          0                 3           2             4    8     1      -0.8887493766E-03       4    8    1        -0.2143949842E-01      0.5946752026E-01
          0                 4           1             4    8     1       0.7054284383E-04       4    8    1         0.1717303657E-02      0.4763268170E-02

    ------------------------------------------------
       NWT REQUIRED            4 OUTER ITERATIONS 
       AND A TOTAL OF          7 INNER ITERATIONS.
    ------------------------------------------------

 OUTPUT CONTROL FOR STRESS PERIOD    3   TIME STEP   10
    PRINT BUDGET
    SAVE BUDGET

            WELLS   PERIOD    3   STEP  10
 WELL      1   LAYER   1   ROW     6   COL     4   RATE    -4.00000    
 WELL      2   LAYER   1   ROW     6   COL     5   RATE    -4.00000    
 WELL      3   LAYER   1   ROW     7   COL     4   RATE    -4.00000    
 WELL      4   LAYER   1   ROW     7   COL     5   RATE    -4.00000    
 WELL      5   LAYER   1   ROW     8   COL     4   RATE    -4.00000    
 WELL      6   LAYER   1   ROW     8   COL     5   RATE    -4.00000    
 WELL      7   LAYER   1   ROW     9   COL     4   RATE    -4.00000    
 WELL      8   LAYER   1   ROW     9   COL     5   RATE    -4.00000    
 WELL      9   LAYER   1   ROW    10   COL     4   RATE    -4.00000    
 WELL     10   LAYER   1   ROW    10   COL     5   RATE    -4.00000    

  HEAD DEP BOUNDS   PERIOD    3   STEP    10
 BOUNDARY      1   LAYER   1   ROW    13   COL     1   RATE   -0.285164    
 BOUNDARY      2   LAYER   1   ROW    14   COL     9   RATE    0.294253    



 STREAM LISTING     PERIOD      3   STEP       10

 LAYER ROW COL. STREAM  RCH.  FLOW INTO     FLOW TO   FLOW OUT OF   OVRLND.     DIRECT     STREAM       STREAM     STREAM     STREAM   STREAMBED  STREAMBED
                SEG.NO.  NO.  STRM. RCH.    AQUIFER    STRM. RCH.    RUNOFF     PRECIP       ET          HEAD       DEPTH      WIDTH   CONDCTNC.   GRADIENT

   1    1    1     1     1    2.5000E+01  2.4674E-01   2.5446E+01  6.931E-01  0.000E+00  0.000E+00  1.09423E+03  1.183E+00  1.311E+01  5.898E-02  1.394E+00
   1    2    2     1     2    2.5446E+01  3.8786E-01   2.6137E+01  1.078E+00  0.000E+00  0.000E+00  1.08925E+03  1.192E+00  1.322E+01  9.253E-02  1.397E+00
   1    3    3     1     3    2.6137E+01  3.3630E-01   2.6724E+01  9.241E-01  0.000E+00  0.000E+00  1.08362E+03  1.201E+00  1.334E+01  8.005E-02  1.400E+00
   1    3    4     1     4    2.6724E+01  3.1418E-01   2.7265E+01  8.548E-01  0.000E+00  0.000E+00  1.07862E+03  1.209E+00  1.345E+01  7.464E-02  1.403E+00
   1    4    5     2     1    1.7265E+01  3.0989E-01   1.7617E+01  6.623E-01  0.000E+00  0.000E+00  1.07291E+03  9.729E-01  1.200E+01  7.800E-02  1.324E+00
   1    5    6     2     2    1.7617E+01  2.3900E-01   1.7888E+01  5.094E-01  0.000E+00  0.000E+00  1.06749E+03  9.833E-01  1.200E+01  6.000E-02  1.328E+00
   1    6    6     2     3    1.7888E+01  2.3954E-01   1.8158E+01  5.094E-01  0.000E+00  0.000E+00  1.06278E+03  9.923E-01  1.200E+01  6.000E-02  1.331E+00
   1    7    6     2     4    1.8158E+01  2.4007E-01   1.8427E+01  5.094E-01  0.000E+00  0.000E+00  1.05808E+03  1.001E+00  1.200E+01  6.000E-02  1.334E+00
   1    8    6     2     5    1.8427E+01  2.4060E-01   1.8696E+01  5.094E-01  0.000E+00  0.000E+00  1.05337E+03  1.010E+00  1.200E+01  6.000E-02  1.337E+00
   1    3    5     3     1    1.0000E+01  2.8252E-01   1.1990E+01  2.273E+00  0.000E+00  0.000E+00  1.07555E+03  1.909E+00  9.636E+00  7.227E-02  1.955E+00
   1    3    6     3     2    1.1990E+01  2.4905E-01   1.4014E+01  2.273E+00  0.000E+00  0.000E+00  1.07264E+03  1.727E+00  8.909E+00  6.682E-02  1.864E+00
   1    3    7     3     3    1.4014E+01  1.9718E-01   1.5862E+01  2.045E+00  0.000E+00  0.000E+00  1.06987E+03  1.555E+00  8.218E+00  5.547E-02  1.777E+00
   1    4    8     3     4    1.5862E+01  2.2567E-01   1.8364E+01  2.727E+00  0.000E+00  0.000E+00  1.06682E+03  1.364E+00  7.455E+00  6.709E-02  1.682E+00
   1    5    8     3     5    1.8364E+01  1.5790E-01   2.0479E+01  2.273E+00  0.000E+00  0.000E+00  1.06362E+03  1.164E+00  6.655E+00  4.991E-02  1.582E+00
   1    6    8     3     6    2.0479E+01  5.5980E-02   2.1332E+01  9.091E-01  0.000E+00  0.000E+00  1.06158E+03  1.036E+00  6.145E+00  1.844E-02  1.518E+00
   1    5   10     4     1    1.0000E+01  9.1150E-02   1.0392E+01  4.830E-01  0.000E+00  0.000E+00  1.07837E+03  6.460E-01  1.000E+01  2.500E-02  1.215E+00
   1    5    9     4     2    1.0392E+01  1.8340E-01   1.1174E+01  9.659E-01  0.000E+00  0.000E+00  1.07158E+03  6.681E-01  1.000E+01  5.000E-02  1.223E+00
   1    6    8     4     3    1.1174E+01  1.2924E-01   1.1721E+01  6.761E-01  0.000E+00  0.000E+00  1.06387E+03  6.925E-01  1.000E+01  3.500E-02  1.231E+00
   1    6    8     5     1    3.3053E+01  5.0019E-01   3.3379E+01  8.267E-01  0.000E+00  0.000E+00  1.05902E+03  1.022E+00  3.109E+01  1.244E-01  1.341E+00
   1    7    7     5     2    3.3379E+01  6.2996E-01   3.3783E+01  1.033E+00  0.000E+00  0.000E+00  1.05453E+03  1.026E+00  3.129E+01  1.565E-01  1.342E+00
   1    8    7     5     3    3.3783E+01  4.4406E-01   3.4062E+01  7.233E-01  0.000E+00  0.000E+00  1.05028E+03  1.030E+00  3.148E+01  1.102E-01  1.343E+00
   1    8    6     5     4    3.4062E+01  3.1872E-01   3.4260E+01  5.167E-01  0.000E+00  0.000E+00  1.04728E+03  1.032E+00  3.162E+01  7.904E-02  1.344E+00
   1    9    6     6     1    5.2956E+01  2.9581E-01   5.4296E+01  1.636E+00  0.000E+00  0.000E+00  1.04466E+03  1.930E+00  1.200E+01  6.000E-02  1.643E+00
   1   10    7     6     2    5.4296E+01  2.9754E-01   5.5635E+01  1.636E+00  0.000E+00  0.000E+00  1.04014E+03  1.959E+00  1.200E+01  6.000E-02  1.653E+00
   1   11    7     6     3    5.5635E+01  2.9925E-01   5.6972E+01  1.636E+00  0.000E+00  0.000E+00  1.03562E+03  1.987E+00  1.200E+01  6.000E-02  1.662E+00
   1   12    7     6     4    5.6972E+01  3.0094E-01   5.8308E+01  1.636E+00  0.000E+00  0.000E+00  1.03111E+03  2.016E+00  1.200E+01  6.000E-02  1.672E+00
   1   13    7     6     5    5.8308E+01  5.1631E-02   5.8911E+01  6.545E-01  0.000E+00  0.000E+00  1.02794E+03  2.036E+00  1.200E+01  2.400E-02  7.171E-01
   1   14    9     7     1    1.5000E+02  1.4634E+00   1.5008E+02  1.540E+00  0.000E+00  0.000E+00  1.03987E+03  2.291E+00  5.531E+01  5.595E-01  8.719E-01
   1   13    8     7     2    1.5008E+02  2.2661E+00   1.4951E+02  1.694E+00  0.000E+00  0.000E+00  1.03479E+03  2.290E+00  5.531E+01  6.154E-01  1.228E+00
   1   13    7     7     3    1.4951E+02  2.1882E+00   1.4886E+02  1.540E+00  0.000E+00  0.000E+00  1.02971E+03  2.287E+00  5.529E+01  5.593E-01  1.304E+00
   1   13    6     8     1    2.0777E+02  1.8544E+00   2.1411E+02  8.196E+00  0.000E+00  0.000E+00  1.02508E+03  3.201E+00  4.641E+01  4.730E-01  1.307E+00
   1   13    5     8     2    2.1411E+02  1.2139E+00   2.2109E+02  8.196E+00  0.000E+00  0.000E+00  1.01886E+03  3.239E+00  4.696E+01  4.785E-01  8.456E-01
   1   13    4     8     3    2.2109E+02  2.9065E-01   2.2900E+02  8.196E+00  0.000E+00  0.000E+00  1.01265E+03  3.280E+00  4.756E+01  4.846E-01  1.999E-01
   1   13    3     8     4    2.2900E+02 -1.1582E+00   2.3835E+02  8.196E+00  0.000E+00  0.000E+00  1.00645E+03  3.326E+00  4.823E+01  4.915E+00 -7.855E-02
   1   13    2     8     5    2.3835E+02 -9.1308E-01   2.4746E+02  8.196E+00  0.000E+00  0.000E+00  1.00025E+03  3.375E+00  4.894E+01  4.987E+00 -6.103E-02
   1   13    1     8     6    2.4746E+02 -6.5495E-01   2.5304E+02  4.918E+00  0.000E+00  0.000E+00  9.95288E+02  3.413E+00  4.949E+01  3.026E+00 -7.215E-02



 UBDSV3 SAVING "     NETRECHARGE" ON UNIT 100 AT TIME STEP 10, STRESS PERIOD   3
 UBDSV3 SAVING "    NETDISCHARGE" ON UNIT 101 AT TIME STEP 10, STRESS PERIOD   3
 UBDSV3 SAVING "           GW ET" ON UNIT  61 AT TIME STEP 10, STRESS PERIOD   3
 UBDSV3 SAVING "    UZF RECHARGE" ON UNIT  61 AT TIME STEP 10, STRESS PERIOD   3
 UBDSV3 SAVING " SURFACE LEAKAGE" ON UNIT  61 AT TIME STEP 10, STRESS PERIOD   3
 UBDSV3 SAVING "       HORT+DUNN" ON UNIT  61 AT TIME STEP 10, STRESS PERIOD   3
 UBDSV3 SAVING "  STORAGE CHANGE" ON UNIT  61 AT TIME STEP 10, STRESS PERIOD   3


UNSATURATED ZONE PACKAGE VOLUMETRIC BUDGET FOR  TIME STEP    10 STRESS PERIOD    3
  ------------------------------------------------------------------------------



     CUMULATIVE VOLUMES      L**3       RATES FOR THIS TIME STEP      L**3/T
     ------------------                 ------------------------

           IN:                                      IN:
           ---                                      ---
        INFILTRATION =    19065276.0059          INFILTRATION =           2.9000

          OUT:                                     OUT:
          ----                                     ----
              UZF ET =     1399581.9092                UZF ET =           0.6414
        UZF RECHARGE =     7668074.2431          UZF RECHARGE =           0.0075

            IN - OUT =     9997619.8535              IN - OUT =           2.2511

          STORAGE:                                 STORAGE:
          --------                                 --------
      STORAGE CHANGE =     9997619.8145        STORAGE CHANGE =           2.2511

 PERCENT DISCREPANCY IS DIFFERENCE BETWEEN IN-OUT MINUS CHANGE IN STORAGE
 DIVIDED BY THE AVERAGE OF IN AND OUT TIMES 100

 PERCENT DISCREPANCY =           0.00     PERCENT DISCREPANCY =           0.00






1
  VOLUMETRIC BUDGET FOR ENTIRE MODEL AT END OF TIME STEP   10, STRESS PERIOD   3
  ------------------------------------------------------------------------------

     CUMULATIVE VOLUMES      L**3       RATES FOR THIS TIME STEP      L**3/T
     ------------------                 ------------------------

           IN:                                      IN:
           ---                                      ---
             STORAGE =   131334264.0000               STORAGE =          32.5973
       CONSTANT HEAD =           0.0000         CONSTANT HEAD =           0.0000
               WELLS =           0.0000                 WELLS =           0.0000
     HEAD DEP BOUNDS =     1931906.1250       HEAD DEP BOUNDS =           0.2943
      STREAM LEAKAGE =   102681872.0000        STREAM LEAKAGE =          16.5410
        UZF RECHARGE =     7668079.5000          UZF RECHARGE =       7.4881E-03
               GW ET =           0.0000                 GW ET =           0.0000
     SURFACE LEAKAGE =           0.0000       SURFACE LEAKAGE =           0.0000

            TOTAL IN =   243616112.0000              TOTAL IN =          49.4400

          OUT:                                     OUT:
          ----                                     ----
             STORAGE =     1167397.2500               STORAGE =           0.2365
       CONSTANT HEAD =           0.0000         CONSTANT HEAD =           0.0000
               WELLS =   184129344.0000                 WELLS =          40.0000
     HEAD DEP BOUNDS =     1876345.2500       HEAD DEP BOUNDS =           0.2852
      STREAM LEAKAGE =    28621916.0000        STREAM LEAKAGE =           2.7263
        UZF RECHARGE =           0.0000          UZF RECHARGE =           0.0000
               GW ET =    27826186.0000                 GW ET =           6.1937
     SURFACE LEAKAGE =           0.0000       SURFACE LEAKAGE =           0.0000

           TOTAL OUT =   243621200.0000             TOTAL OUT =          49.4417

            IN - OUT =       -5088.0000              IN - OUT =      -1.6441E-03

 PERCENT DISCREPANCY =          -0.00     PERCENT DISCREPANCY =          -0.00






         TIME SUMMARY AT END OF TIME STEP   10 IN STRESS PERIOD    3
                    SECONDS     MINUTES      HOURS       DAYS        YEARS
                    -----------------------------------------------------------
   TIME STEP LENGTH 1.95033E+05  3250.6      54.176      2.2573     6.18023E-03
 STRESS PERIOD TIME 1.31823E+06  21971.      366.18      15.257     4.17723E-02
         TOTAL TIME 6.57423E+06 1.09571E+05  1826.2      76.091     0.20832    
1
 
 SOLVING FOR HEAD 
                                                   Max.-Head-Change                         Max.-Flux-Residual
  Residual-Control   Outer-Iter.   Inner-Iter.     Column Row Layer    Maximum-Head-Change  Column Row Layer    Maximum-Flux-Residual          L2-NORM 
          0                 1           2             4    8     1      -0.1088913495E+00       4    8    1        -0.2348208409E+01      0.6527886793E+01
          0                 2           2             4    8     1       0.1078981148E-01       4    8    1         0.2348117943E+00      0.6527219676E+00
          0                 3           2             4    8     1      -0.9622665224E-03       4    8    1        -0.2113315292E-01      0.5874329302E-01
          0                 4           1             4    8     1       0.7637812738E-04       4    8    1         0.1692765263E-02      0.4705268536E-02

    ------------------------------------------------
       NWT REQUIRED            4 OUTER ITERATIONS 
       AND A TOTAL OF          7 INNER ITERATIONS.
    ------------------------------------------------

 NO OUTPUT CONTROL FOR STRESS PERIOD    3   TIME STEP   11
 
 SOLVING FOR HEAD 
                                                   Max.-Head-Change                         Max.-Flux-Residual
  Residual-Control   Outer-Iter.   Inner-Iter.     Column Row Layer    Maximum-Head-Change  Column Row Layer    Maximum-Flux-Residual          L2-NORM 
          0                 1           2             4    8     1      -0.1177155285E+00       4    8    1        -0.2311329913E+01      0.6443224977E+01
          0                 2           2             4    8     1       0.1166411434E-01       4    8    1         0.2311224019E+00      0.6442763457E+00
          0                 3           2             4    8     1      -0.1040240033E-02       4    8    1        -0.2080112273E-01      0.5798382741E-01
          0                 4           1             4    8     1       0.8256712520E-04       4    8    1         0.1666169528E-02      0.4644472438E-02

    ------------------------------------------------
       NWT REQUIRED            4 OUTER ITERATIONS 
       AND A TOTAL OF          7 INNER ITERATIONS.
    ------------------------------------------------

 NO OUTPUT CONTROL FOR STRESS PERIOD    3   TIME STEP   12
 
 SOLVING FOR HEAD 
                                                   Max.-Head-Change                         Max.-Flux-Residual
  Residual-Control   Outer-Iter.   Inner-Iter.     Column Row Layer    Maximum-Head-Change  Column Row Layer    Maximum-Flux-Residual          L2-NORM 
          0                 1           2             4    8     1      -0.1270413853E+00       4    8    1        -0.2271483041E+01      0.6354819857E+01
          0                 2           2             4    8     1       0.1258810323E-01       4    8    1         0.2271359463E+00      0.6354120246E+00
          0                 3           2             4    8     1      -0.1122644910E-02       4    8    1        -0.2044235903E-01      0.5718647375E-01
          0                 4           1             4    8     1       0.8910785271E-04       4    8    1         0.1637432417E-02      0.4580604493E-02

    ------------------------------------------------
       NWT REQUIRED            4 OUTER ITERATIONS 
       AND A TOTAL OF          7 INNER ITERATIONS.
    ------------------------------------------------

 NO OUTPUT CONTROL FOR STRESS PERIOD    3   TIME STEP   13
 
 SOLVING FOR HEAD 
                                                   Max.-Head-Change                         Max.-Flux-Residual
  Residual-Control   Outer-Iter.   Inner-Iter.     Column Row Layer    Maximum-Head-Change  Column Row Layer    Maximum-Flux-Residual          L2-NORM 
          0                 1           2             4    8     1      -0.1368603080E+00       4    8    1        -0.2228580881E+01      0.6262798514E+01
          0                 2           2             4    8     1       0.1356092403E-01       4    8    1         0.2228437203E+00      0.6262527468E+00
          0                 3           2             4    8     1      -0.1209405035E-02       4    8    1        -0.2005607837E-01      0.5636242807E-01
          0                 4           1             4    8     1       0.9599426697E-04       4    8    1         0.1606491170E-02      0.4514607027E-02

    ------------------------------------------------
       NWT REQUIRED            4 OUTER ITERATIONS 
       AND A TOTAL OF          7 INNER ITERATIONS.
    ------------------------------------------------

 NO OUTPUT CONTROL FOR STRESS PERIOD    3   TIME STEP   14
 
 SOLVING FOR HEAD 
                                                   Max.-Head-Change                         Max.-Flux-Residual
  Residual-Control   Outer-Iter.   Inner-Iter.     Column Row Layer    Maximum-Head-Change  Column Row Layer    Maximum-Flux-Residual          L2-NORM 
          0                 1           2             4    8     1      -0.1471573422E+00       4    8    1        -0.2182569159E+01      0.6167311555E+01
          0                 2           2             4    8     1       0.1458108453E-01       4    8    1         0.2182402853E+00      0.6167068007E+00
          0                 3           2             4    8     1      -0.1300387387E-02       4    8    1        -0.1964179138E-01      0.5550345862E-01
          0                 4           1             4    8     1       0.1032158082E-03       4    8    1         0.1573306589E-02      0.4445808679E-02
          0                 5           1             4    8     1      -0.7190185796E-05       4    8    1        -0.1106018385E-03      0.3125246761E-03

    ------------------------------------------------
       NWT REQUIRED            5 OUTER ITERATIONS 
       AND A TOTAL OF          8 INNER ITERATIONS.
    ------------------------------------------------

 OUTPUT CONTROL FOR STRESS PERIOD    3   TIME STEP   15
    PRINT BUDGET
    PRINT HEAD FOR ALL LAYERS
    SAVE HEAD FOR ALL LAYERS
    SAVE BUDGET

            WELLS   PERIOD    3   STEP  15
 WELL      1   LAYER   1   ROW     6   COL     4   RATE    -4.00000    
 WELL      2   LAYER   1   ROW     6   COL     5   RATE    -4.00000    
 WELL      3   LAYER   1   ROW     7   COL     4   RATE    -4.00000    
 WELL      4   LAYER   1   ROW     7   COL     5   RATE    -4.00000    
 WELL      5   LAYER   1   ROW     8   COL     4   RATE    -4.00000    
 WELL      6   LAYER   1   ROW     8   COL     5   RATE    -4.00000    
 WELL      7   LAYER   1   ROW     9   COL     4   RATE    -4.00000    
 WELL      8   LAYER   1   ROW     9   COL     5   RATE    -4.00000    
 WELL      9   LAYER   1   ROW    10   COL     4   RATE    -4.00000    
 WELL     10   LAYER   1   ROW    10   COL     5   RATE    -4.00000    

  HEAD DEP BOUNDS   PERIOD    3   STEP    15
 BOUNDARY      1   LAYER   1   ROW    13   COL     1   RATE   -0.285736    
 BOUNDARY      2   LAYER   1   ROW    14   COL     9   RATE    0.294413    



 STREAM LISTING     PERIOD      3   STEP       15

 LAYER ROW COL. STREAM  RCH.  FLOW INTO     FLOW TO   FLOW OUT OF   OVRLND.     DIRECT     STREAM       STREAM     STREAM     STREAM   STREAMBED  STREAMBED
                SEG.NO.  NO.  STRM. RCH.    AQUIFER    STRM. RCH.    RUNOFF     PRECIP       ET          HEAD       DEPTH      WIDTH   CONDCTNC.   GRADIENT

   1    1    1     1     1    2.5000E+01  2.4674E-01   2.5446E+01  6.931E-01  0.000E+00  0.000E+00  1.09423E+03  1.183E+00  1.311E+01  5.898E-02  1.394E+00
   1    2    2     1     2    2.5446E+01  3.8786E-01   2.6137E+01  1.078E+00  0.000E+00  0.000E+00  1.08925E+03  1.192E+00  1.322E+01  9.253E-02  1.397E+00
   1    3    3     1     3    2.6137E+01  3.3630E-01   2.6724E+01  9.241E-01  0.000E+00  0.000E+00  1.08362E+03  1.201E+00  1.334E+01  8.005E-02  1.400E+00
   1    3    4     1     4    2.6724E+01  3.1418E-01   2.7265E+01  8.548E-01  0.000E+00  0.000E+00  1.07862E+03  1.209E+00  1.345E+01  7.464E-02  1.403E+00
   1    4    5     2     1    1.7265E+01  3.0989E-01   1.7617E+01  6.623E-01  0.000E+00  0.000E+00  1.07291E+03  9.729E-01  1.200E+01  7.800E-02  1.324E+00
   1    5    6     2     2    1.7617E+01  2.3900E-01   1.7888E+01  5.094E-01  0.000E+00  0.000E+00  1.06749E+03  9.833E-01  1.200E+01  6.000E-02  1.328E+00
   1    6    6     2     3    1.7888E+01  2.3954E-01   1.8158E+01  5.094E-01  0.000E+00  0.000E+00  1.06278E+03  9.923E-01  1.200E+01  6.000E-02  1.331E+00
   1    7    6     2     4    1.8158E+01  2.4007E-01   1.8427E+01  5.094E-01  0.000E+00  0.000E+00  1.05808E+03  1.001E+00  1.200E+01  6.000E-02  1.334E+00
   1    8    6     2     5    1.8427E+01  2.4060E-01   1.8696E+01  5.094E-01  0.000E+00  0.000E+00  1.05337E+03  1.010E+00  1.200E+01  6.000E-02  1.337E+00
   1    3    5     3     1    1.0000E+01  2.8252E-01   1.1990E+01  2.273E+00  0.000E+00  0.000E+00  1.07555E+03  1.909E+00  9.636E+00  7.227E-02  1.955E+00
   1    3    6     3     2    1.1990E+01  2.4905E-01   1.4014E+01  2.273E+00  0.000E+00  0.000E+00  1.07264E+03  1.727E+00  8.909E+00  6.682E-02  1.864E+00
   1    3    7     3     3    1.4014E+01  1.9718E-01   1.5862E+01  2.045E+00  0.000E+00  0.000E+00  1.06987E+03  1.555E+00  8.218E+00  5.547E-02  1.777E+00
   1    4    8     3     4    1.5862E+01  2.2567E-01   1.8364E+01  2.727E+00  0.000E+00  0.000E+00  1.06682E+03  1.364E+00  7.455E+00  6.709E-02  1.682E+00
   1    5    8     3     5    1.8364E+01  1.5790E-01   2.0479E+01  2.273E+00  0.000E+00  0.000E+00  1.06362E+03  1.164E+00  6.655E+00  4.991E-02  1.582E+00
   1    6    8     3     6    2.0479E+01  5.5980E-02   2.1332E+01  9.091E-01  0.000E+00  0.000E+00  1.06158E+03  1.036E+00  6.145E+00  1.844E-02  1.518E+00
   1    5   10     4     1    1.0000E+01  9.1150E-02   1.0392E+01  4.830E-01  0.000E+00  0.000E+00  1.07837E+03  6.460E-01  1.000E+01  2.500E-02  1.215E+00
   1    5    9     4     2    1.0392E+01  1.8340E-01   1.1174E+01  9.659E-01  0.000E+00  0.000E+00  1.07158E+03  6.681E-01  1.000E+01  5.000E-02  1.223E+00
   1    6    8     4     3    1.1174E+01  1.2924E-01   1.1721E+01  6.761E-01  0.000E+00  0.000E+00  1.06387E+03  6.925E-01  1.000E+01  3.500E-02  1.231E+00
   1    6    8     5     1    3.3053E+01  5.0019E-01   3.3379E+01  8.267E-01  0.000E+00  0.000E+00  1.05902E+03  1.022E+00  3.109E+01  1.244E-01  1.341E+00
   1    7    7     5     2    3.3379E+01  6.2996E-01   3.3783E+01  1.033E+00  0.000E+00  0.000E+00  1.05453E+03  1.026E+00  3.129E+01  1.565E-01  1.342E+00
   1    8    7     5     3    3.3783E+01  4.4406E-01   3.4062E+01  7.233E-01  0.000E+00  0.000E+00  1.05028E+03  1.030E+00  3.148E+01  1.102E-01  1.343E+00
   1    8    6     5     4    3.4062E+01  3.1872E-01   3.4260E+01  5.167E-01  0.000E+00  0.000E+00  1.04728E+03  1.032E+00  3.162E+01  7.904E-02  1.344E+00
   1    9    6     6     1    5.2956E+01  2.9581E-01   5.4296E+01  1.636E+00  0.000E+00  0.000E+00  1.04466E+03  1.930E+00  1.200E+01  6.000E-02  1.643E+00
   1   10    7     6     2    5.4296E+01  2.9754E-01   5.5635E+01  1.636E+00  0.000E+00  0.000E+00  1.04014E+03  1.959E+00  1.200E+01  6.000E-02  1.653E+00
   1   11    7     6     3    5.5635E+01  2.9925E-01   5.6972E+01  1.636E+00  0.000E+00  0.000E+00  1.03562E+03  1.987E+00  1.200E+01  6.000E-02  1.662E+00
   1   12    7     6     4    5.6972E+01  3.0094E-01   5.8308E+01  1.636E+00  0.000E+00  0.000E+00  1.03111E+03  2.016E+00  1.200E+01  6.000E-02  1.672E+00
   1   13    7     6     5    5.8308E+01  5.1713E-02   5.8911E+01  6.545E-01  0.000E+00  0.000E+00  1.02794E+03  2.036E+00  1.200E+01  2.400E-02  7.182E-01
   1   14    9     7     1    1.5000E+02  1.4658E+00   1.5007E+02  1.540E+00  0.000E+00  0.000E+00  1.03987E+03  2.291E+00  5.531E+01  5.595E-01  8.733E-01
   1   13    8     7     2    1.5007E+02  2.2681E+00   1.4950E+02  1.694E+00  0.000E+00  0.000E+00  1.03479E+03  2.290E+00  5.531E+01  6.154E-01  1.229E+00
   1   13    7     7     3    1.4950E+02  2.1901E+00   1.4885E+02  1.540E+00  0.000E+00  0.000E+00  1.02971E+03  2.287E+00  5.529E+01  5.593E-01  1.305E+00
   1   13    6     8     1    2.0776E+02  1.8621E+00   2.1410E+02  8.196E+00  0.000E+00  0.000E+00  1.02508E+03  3.201E+00  4.641E+01  4.730E-01  1.312E+00
   1   13    5     8     2    2.1410E+02  1.2393E+00   2.2105E+02  8.196E+00  0.000E+00  0.000E+00  1.01886E+03  3.238E+00  4.696E+01  4.785E-01  8.633E-01
   1   13    4     8     3    2.2105E+02  3.1468E-01   2.2893E+02  8.196E+00  0.000E+00  0.000E+00  1.01265E+03  3.279E+00  4.755E+01  4.846E-01  2.165E-01
   1   13    3     8     4    2.2893E+02 -1.1652E+00   2.3830E+02  8.196E+00  0.000E+00  0.000E+00  1.00645E+03  3.326E+00  4.823E+01  4.914E+00 -7.903E-02
   1   13    2     8     5    2.3830E+02 -9.7401E-01   2.4747E+02  8.196E+00  0.000E+00  0.000E+00  1.00025E+03  3.375E+00  4.893E+01  4.987E+00 -6.511E-02
   1   13    1     8     6    2.4747E+02 -7.0013E-01   2.5308E+02  4.918E+00  0.000E+00  0.000E+00  9.95288E+02  3.413E+00  4.949E+01  3.026E+00 -7.713E-02



 UBDSV3 SAVING "     NETRECHARGE" ON UNIT 100 AT TIME STEP 15, STRESS PERIOD   3
 UBDSV3 SAVING "    NETDISCHARGE" ON UNIT 101 AT TIME STEP 15, STRESS PERIOD   3
 UBDSV3 SAVING "           GW ET" ON UNIT  61 AT TIME STEP 15, STRESS PERIOD   3
 UBDSV3 SAVING "    UZF RECHARGE" ON UNIT  61 AT TIME STEP 15, STRESS PERIOD   3
 UBDSV3 SAVING " SURFACE LEAKAGE" ON UNIT  61 AT TIME STEP 15, STRESS PERIOD   3
 UBDSV3 SAVING "       HORT+DUNN" ON UNIT  61 AT TIME STEP 15, STRESS PERIOD   3
 UBDSV3 SAVING "  STORAGE CHANGE" ON UNIT  61 AT TIME STEP 15, STRESS PERIOD   3


UNSATURATED ZONE PACKAGE VOLUMETRIC BUDGET FOR  TIME STEP    15 STRESS PERIOD    3
  ------------------------------------------------------------------------------



     CUMULATIVE VOLUMES      L**3       RATES FOR THIS TIME STEP      L**3/T
     ------------------                 ------------------------

           IN:                                      IN:
           ---                                      ---
        INFILTRATION =    22863598.3574          INFILTRATION =           2.9000

          OUT:                                     OUT:
          ----                                     ----
              UZF ET =     2364229.8980                UZF ET =           0.7961
        UZF RECHARGE =     7671720.3015          UZF RECHARGE =           0.0013

            IN - OUT =    12827648.1579              IN - OUT =           2.1026

          STORAGE:                                 STORAGE:
          --------                                 --------
      STORAGE CHANGE =    12827648.1387        STORAGE CHANGE =           2.1026

 PERCENT DISCREPANCY IS DIFFERENCE BETWEEN IN-OUT MINUS CHANGE IN STORAGE
 DIVIDED BY THE AVERAGE OF IN AND OUT TIMES 100

 PERCENT DISCREPANCY =           0.00     PERCENT DISCREPANCY =           0.00






1
              HEAD IN LAYER   1 AT END OF TIME STEP  15 IN STRESS PERIOD    3
  ---------------------------------------------------------------------------

           1       2       3       4       5       6       7       8       9      10
 ...................................................................................
   1  1032.65 1029.46 6999.00 6999.00 6999.00 6999.00 6999.00 6999.00 6999.00 6999.00
   2  1029.81 1025.50 1023.56 6999.00 6999.00 1022.21 1022.49 1022.65 6999.00 6999.00
   3  6999.00 1022.59 1021.51 1020.61 1020.60 1021.07 1021.74 1021.95 6999.00 6999.00
   4  1020.43 1020.56 1019.92 1019.10 1018.97 1019.10 1019.87 1021.30 1021.22 6999.00
   5  1019.55 1018.90 1018.14 1017.21 1017.45 1018.30 1018.92 1019.74 1020.62 1021.42
   6  1018.64 1017.67 1016.38 1014.11 1014.71 1017.24 1018.47 1019.46 1020.14 1021.38
   7  1017.99 1016.63 1015.22 1012.64 1013.49 1016.53 1018.15 1018.86 1019.88 6999.00
   8  6999.00 1015.64 1014.48 1011.89 1012.89 1016.10 1017.71 1018.70 1020.16 6999.00
   9  6999.00 1014.60 1013.88 1011.63 1012.73 1015.88 1017.49 1018.90 1021.01 6999.00
  10  6999.00 1013.42 1013.34 1012.02 1013.24 1016.26 1018.05 1019.81 1022.22 1023.07
  11  6999.00 1011.30 1012.39 1013.69 1015.21 1017.47 1019.49 1021.88 1024.76 6999.00
  12  1001.26 1006.44 1010.14 1013.12 1015.88 1018.95 1021.73 1025.93 1029.51 6999.00
  13   995.52 1000.45 1006.69 1012.00 1016.27 1021.14 1025.79 1031.10 1034.09 6999.00
  14  6999.00 1005.82 1008.66 1012.93 1017.11 1021.45 1026.58 1032.53 1037.25 6999.00
  15  6999.00 6999.00 1012.24 1014.73 1017.86 1020.66 6999.00 6999.00 6999.00 6999.00

 HEAD WILL BE SAVED ON UNIT   58 AT END OF TIME STEP   15, STRESS PERIOD    3
1
  VOLUMETRIC BUDGET FOR ENTIRE MODEL AT END OF TIME STEP   15, STRESS PERIOD   3
  ------------------------------------------------------------------------------

     CUMULATIVE VOLUMES      L**3       RATES FOR THIS TIME STEP      L**3/T
     ------------------                 ------------------------

           IN:                                      IN:
           ---                                      ---
             STORAGE =   173918480.0000               STORAGE =          32.4722
       CONSTANT HEAD =           0.0000         CONSTANT HEAD =           0.0000
               WELLS =           0.0000                 WELLS =           0.0000
     HEAD DEP BOUNDS =     2317435.5000       HEAD DEP BOUNDS =           0.2944
      STREAM LEAKAGE =   124397128.0000        STREAM LEAKAGE =          16.6043
        UZF RECHARGE =     7671725.5000          UZF RECHARGE =       1.2785E-03
               GW ET =           0.0000                 GW ET =           0.0000
     SURFACE LEAKAGE =           0.0000       SURFACE LEAKAGE =           0.0000

            TOTAL IN =   308304768.0000              TOTAL IN =          49.3722

          OUT:                                     OUT:
          ----                                     ----
             STORAGE =     1314929.7500               STORAGE =       6.6958E-02
       CONSTANT HEAD =           0.0000         CONSTANT HEAD =           0.0000
               WELLS =   236520000.0000                 WELLS =          40.0000
     HEAD DEP BOUNDS =     2250338.7500       HEAD DEP BOUNDS =           0.2857
      STREAM LEAKAGE =    32298556.0000        STREAM LEAKAGE =           2.8393
        UZF RECHARGE =           0.0000          UZF RECHARGE =           0.0000
               GW ET =    35927608.0000                 GW ET =           6.1802
     SURFACE LEAKAGE =           0.0000       SURFACE LEAKAGE =           0.0000

           TOTAL OUT =   308311424.0000             TOTAL OUT =          49.3721

            IN - OUT =       -6656.0000              IN - OUT =       1.0300E-04

 PERCENT DISCREPANCY =          -0.00     PERCENT DISCREPANCY =           0.00






         TIME SUMMARY AT END OF TIME STEP   15 IN STRESS PERIOD    3
                    SECONDS     MINUTES      HOURS       DAYS        YEARS
                    -----------------------------------------------------------
   TIME STEP LENGTH 3.14103E+05  5235.0      87.251      3.6354     9.95332E-03
 STRESS PERIOD TIME 2.62800E+06  43800.      730.00      30.417     8.32763E-02
         TOTAL TIME 7.88400E+06 1.31400E+05  2190.0      91.250     0.24983    
1
1
                            STRESS PERIOD NO.    4, LENGTH =   2628000.    
                            -----------------------------------------------

                              NUMBER OF TIME STEPS =    15

                               MULTIPLIER FOR DELT =     1.100

                            INITIAL TIME STEP SIZE =   82713.07    

 WELL NO.  LAYER   ROW   COL   STRESS RATE         
 --------------------------------------------------
      1      1      6      4      -4.000    
      2      1      6      5      -4.000    
      3      1      7      4      -4.000    
      4      1      7      5      -4.000    
      5      1      8      4      -4.000    
      6      1      8      5      -4.000    
      7      1      9      4      -4.000    
      8      1      9      5      -4.000    
      9      1     10      4      -4.000    
     10      1     10      5      -4.000    

     10 WELLS

 REUSING NON-PARAMETER GHB CELLS FROM LAST STRESS PERIOD

      2 GHB CELLS

 REUSING STREAM SEGMENT DATA FROM LAST STRESS PERIOD



            AREAL INFILTRATION RATE
 READING ON UNIT   19 WITH FORMAT: (10F4.0)            

            1           2           3           4           5           6           7           8           9          10
 ........................................................................................................................
   1   2.0000E-08  4.0000E-08   0.000       0.000       0.000       0.000       0.000       0.000       0.000       0.000    
   2   4.0000E-08  2.0000E-08  4.0000E-08   0.000       0.000      1.6000E-07  1.6000E-07  1.0000E-07   0.000       0.000    
   3    0.000      1.0000E-07  2.0000E-08  2.0000E-08  1.6000E-07  1.6000E-07  1.0000E-07  1.0000E-07   0.000       0.000    
   4   1.6000E-07  1.0000E-07  2.0000E-08  2.0000E-08  2.0000E-08  2.0000E-08  2.0000E-08  2.0000E-08  4.0000E-08   0.000    
   5   1.6000E-07  1.0000E-07  2.0000E-08  2.0000E-08  2.0000E-08  2.0000E-08  2.0000E-08  2.0000E-08  2.0000E-08  2.0000E-08
   6   1.6000E-07  1.0000E-07  1.0000E-07  4.0000E-08  4.0000E-08  2.0000E-08  2.0000E-08  2.0000E-08  2.0000E-08  1.0000E-07
   7   1.6000E-07  1.0000E-07  1.0000E-07  4.0000E-08  4.0000E-08  2.0000E-08  2.0000E-08  4.0000E-08  4.0000E-08   0.000    
   8    0.000      1.0000E-07  1.0000E-07  4.0000E-08  4.0000E-08  2.0000E-08  2.0000E-08  4.0000E-08  1.0000E-07   0.000    
   9    0.000      1.0000E-07  1.0000E-07  4.0000E-08  4.0000E-08  2.0000E-08  2.0000E-08  4.0000E-08  1.0000E-07   0.000    
  10    0.000      1.0000E-07  1.0000E-07  4.0000E-08  4.0000E-08  2.0000E-08  2.0000E-08  4.0000E-08  1.0000E-07  1.6000E-07
  11    0.000      2.0000E-08  2.0000E-08  2.0000E-08  2.0000E-08  2.0000E-08  2.0000E-08  4.0000E-08  1.0000E-07   0.000    
  12   2.0000E-08  2.0000E-08  2.0000E-08  2.0000E-08  2.0000E-08  2.0000E-08  2.0000E-08  2.0000E-08  4.0000E-08   0.000    
  13   2.0000E-08  2.0000E-08  4.0000E-08  4.0000E-08  4.0000E-08  4.0000E-08  4.0000E-08  2.0000E-08  2.0000E-08   0.000    
  14    0.000      4.0000E-08  1.0000E-07  1.0000E-07  1.0000E-07  1.0000E-07  1.0000E-07  4.0000E-08  2.0000E-08   0.000    
  15    0.000       0.000      1.6000E-07  1.6000E-07  1.6000E-07  1.6000E-07   0.000       0.000       0.000       0.000    

USING ET RATE FROM PREVIOUS STRESS PERIOD. CURRENT PERIOD IS:       4

 USING ET EXTINCTION DEPTH FROM PREVIOUS STRESS PERIOD. CURRENT PERIOD IS:       4

 USING EXTINCTION WATER CONTENT FROM PREVIOUS STRESS PERIOD. CURRENT PERIOD IS:       4
 
 SOLVING FOR HEAD 
                                                   Max.-Head-Change                         Max.-Flux-Residual
  Residual-Control   Outer-Iter.   Inner-Iter.     Column Row Layer    Maximum-Head-Change  Column Row Layer    Maximum-Flux-Residual          L2-NORM 
          0                 1           2             4    8     1      -0.3851783860E-01       4    8    1        -0.2133433816E+01      0.6290958249E+01
          0                 2           2             4    8     1       0.3816746371E-02       4    8    1         0.2133419103E+00      0.6126762414E+00
          0                 3           2             4    8     1      -0.3403875024E-03       4    8    1        -0.1920078874E-01      0.5478903488E-01
          0                 4           1             4    8     1       0.2701763662E-04       4    8    1         0.1537983444E-02      0.4383604549E-02

    ------------------------------------------------
       NWT REQUIRED            4 OUTER ITERATIONS 
       AND A TOTAL OF          7 INNER ITERATIONS.
    ------------------------------------------------

 NO OUTPUT CONTROL FOR STRESS PERIOD    4   TIME STEP    1
 
 SOLVING FOR HEAD 
                                                   Max.-Head-Change                         Max.-Flux-Residual
  Residual-Control   Outer-Iter.   Inner-Iter.     Column Row Layer    Maximum-Head-Change  Column Row Layer    Maximum-Flux-Residual          L2-NORM 
          0                 1           2             4    8     1      -0.4208925658E-01       4    8    1        -0.2120583050E+01      0.6254389150E+01
          0                 2           2             4    8     1       0.4170635479E-02       4    8    1         0.2120565907E+00      0.6065238332E+00
          0                 3           2             4    8     1      -0.3719483051E-03       4    8    1        -0.1908511235E-01      0.5409842954E-01
          0                 4           1             4    8     1       0.2952271777E-04       4    8    1         0.1528717743E-02      0.4326386175E-02

    ------------------------------------------------
       NWT REQUIRED            4 OUTER ITERATIONS 
       AND A TOTAL OF          7 INNER ITERATIONS.
    ------------------------------------------------

 NO OUTPUT CONTROL FOR STRESS PERIOD    4   TIME STEP    2
 
 SOLVING FOR HEAD 
                                                   Max.-Head-Change                         Max.-Flux-Residual
  Residual-Control   Outer-Iter.   Inner-Iter.     Column Row Layer    Maximum-Head-Change  Column Row Layer    Maximum-Flux-Residual          L2-NORM 
          0                 1           2             4    8     1      -0.4596176365E-01       4    8    1        -0.2106549164E+01      0.6214948051E+01
          0                 2           2             4    8     1       0.4554358105E-02       4    8    1         0.2106529180E+00      0.6023551513E+00
          0                 3           2             4    8     1      -0.4061697553E-03       4    8    1        -0.1895878460E-01      0.5381346125E-01
          0                 4           1             4    8     1       0.3223898241E-04       4    8    1         0.1518598865E-02      0.4304776277E-02

    ------------------------------------------------
       NWT REQUIRED            4 OUTER ITERATIONS 
       AND A TOTAL OF          7 INNER ITERATIONS.
    ------------------------------------------------

 NO OUTPUT CONTROL FOR STRESS PERIOD    4   TIME STEP    3
 
 SOLVING FOR HEAD 
                                                   Max.-Head-Change                         Max.-Flux-Residual
  Residual-Control   Outer-Iter.   Inner-Iter.     Column Row Layer    Maximum-Head-Change  Column Row Layer    Maximum-Flux-Residual          L2-NORM 
          0                 1           2             4    8     1      -0.5015473502E-01       4    8    1        -0.2091238618E+01      0.6172861289E+01
          0                 2           2             4    8     1       0.4969833694E-02       4    8    1         0.2091215311E+00      0.6019296382E+00
          0                 3           2             4    8     1      -0.4432230376E-03       4    8    1        -0.1882096302E-01      0.5358471694E-01
          0                 4           1             4    8     1       0.3518001878E-04       4    8    1         0.1507559347E-02      0.4282500488E-02

    ------------------------------------------------
       NWT REQUIRED            4 OUTER ITERATIONS 
       AND A TOTAL OF          7 INNER ITERATIONS.
    ------------------------------------------------

 NO OUTPUT CONTROL FOR STRESS PERIOD    4   TIME STEP    4
 
 SOLVING FOR HEAD 
                                                   Max.-Head-Change                         Max.-Flux-Residual
  Residual-Control   Outer-Iter.   Inner-Iter.     Column Row Layer    Maximum-Head-Change  Column Row Layer    Maximum-Flux-Residual          L2-NORM 
          0                 1           2             4    8     1      -0.5468782563E-01       4    8    1        -0.2074563652E+01      0.6124821937E+01
          0                 2           2             4    8     1       0.5419009283E-02       4    8    1         0.2074536468E+00      0.5955034793E+00
          0                 3           2             4    8     1      -0.4832817998E-03       4    8    1        -0.1867085722E-01      0.5321904938E-01
          0                 4           1             4    8     1       0.3835960934E-04       4    8    1         0.1495535839E-02      0.4256953853E-02

    ------------------------------------------------
       NWT REQUIRED            4 OUTER ITERATIONS 
       AND A TOTAL OF          7 INNER ITERATIONS.
    ------------------------------------------------

 OUTPUT CONTROL FOR STRESS PERIOD    4   TIME STEP    5
    PRINT BUDGET
    SAVE BUDGET

            WELLS   PERIOD    4   STEP   5
 WELL      1   LAYER   1   ROW     6   COL     4   RATE    -4.00000    
 WELL      2   LAYER   1   ROW     6   COL     5   RATE    -4.00000    
 WELL      3   LAYER   1   ROW     7   COL     4   RATE    -4.00000    
 WELL      4   LAYER   1   ROW     7   COL     5   RATE    -4.00000    
 WELL      5   LAYER   1   ROW     8   COL     4   RATE    -4.00000    
 WELL      6   LAYER   1   ROW     8   COL     5   RATE    -4.00000    
 WELL      7   LAYER   1   ROW     9   COL     4   RATE    -4.00000    
 WELL      8   LAYER   1   ROW     9   COL     5   RATE    -4.00000    
 WELL      9   LAYER   1   ROW    10   COL     4   RATE    -4.00000    
 WELL     10   LAYER   1   ROW    10   COL     5   RATE    -4.00000    

  HEAD DEP BOUNDS   PERIOD    4   STEP     5
 BOUNDARY      1   LAYER   1   ROW    13   COL     1   RATE   -0.288824    
 BOUNDARY      2   LAYER   1   ROW    14   COL     9   RATE    0.294461    



 STREAM LISTING     PERIOD      4   STEP        5

 LAYER ROW COL. STREAM  RCH.  FLOW INTO     FLOW TO   FLOW OUT OF   OVRLND.     DIRECT     STREAM       STREAM     STREAM     STREAM   STREAMBED  STREAMBED
                SEG.NO.  NO.  STRM. RCH.    AQUIFER    STRM. RCH.    RUNOFF     PRECIP       ET          HEAD       DEPTH      WIDTH   CONDCTNC.   GRADIENT

   1    1    1     1     1    2.5000E+01  2.4841E-01   2.6177E+01  1.425E+00  0.000E+00  0.000E+00  1.09424E+03  1.189E+00  1.318E+01  5.930E-02  1.396E+00
   1    2    2     1     2    2.6177E+01  3.9690E-01   2.7997E+01  2.217E+00  0.000E+00  0.000E+00  1.08927E+03  1.210E+00  1.347E+01  9.427E-02  1.403E+00
   1    3    3     1     3    2.7997E+01  3.5002E-01   2.9547E+01  1.900E+00  0.000E+00  0.000E+00  1.08365E+03  1.234E+00  1.378E+01  8.268E-02  1.411E+00
   1    3    4     1     4    2.9547E+01  3.3150E-01   3.0973E+01  1.758E+00  0.000E+00  0.000E+00  1.07866E+03  1.252E+00  1.405E+01  7.796E-02  1.417E+00
   1    4    5     2     1    2.0973E+01  3.2007E-01   2.2051E+01  1.398E+00  0.000E+00  0.000E+00  1.07304E+03  1.103E+00  1.200E+01  7.800E-02  1.368E+00
   1    5    6     2     2    2.2051E+01  2.4795E-01   2.2879E+01  1.075E+00  0.000E+00  0.000E+00  1.06764E+03  1.133E+00  1.200E+01  6.000E-02  1.378E+00
   1    6    6     2     3    2.2879E+01  2.4944E-01   2.3705E+01  1.075E+00  0.000E+00  0.000E+00  1.06295E+03  1.157E+00  1.200E+01  6.000E-02  1.386E+00
   1    7    6     2     4    2.3705E+01  2.5091E-01   2.4529E+01  1.075E+00  0.000E+00  0.000E+00  1.05826E+03  1.182E+00  1.200E+01  6.000E-02  1.394E+00
   1    8    6     2     5    2.4529E+01  2.5235E-01   2.5352E+01  1.075E+00  0.000E+00  0.000E+00  1.05356E+03  1.206E+00  1.200E+01  6.000E-02  1.402E+00
   1    3    5     3     1    1.0000E+01  2.8252E-01   1.4308E+01  4.591E+00  0.000E+00  0.000E+00  1.07555E+03  1.909E+00  9.636E+00  7.227E-02  1.955E+00
   1    3    6     3     2    1.4308E+01  2.4905E-01   1.8650E+01  4.591E+00  0.000E+00  0.000E+00  1.07264E+03  1.727E+00  8.909E+00  6.682E-02  1.864E+00
   1    3    7     3     3    1.8650E+01  1.9718E-01   2.2585E+01  4.132E+00  0.000E+00  0.000E+00  1.06987E+03  1.555E+00  8.218E+00  5.547E-02  1.777E+00
   1    4    8     3     4    2.2585E+01  2.2567E-01   2.7868E+01  5.509E+00  0.000E+00  0.000E+00  1.06682E+03  1.364E+00  7.455E+00  6.709E-02  1.682E+00
   1    5    8     3     5    2.7868E+01  1.5790E-01   3.2301E+01  4.591E+00  0.000E+00  0.000E+00  1.06362E+03  1.164E+00  6.655E+00  4.991E-02  1.582E+00
   1    6    8     3     6    3.2301E+01  5.5980E-02   3.4082E+01  1.836E+00  0.000E+00  0.000E+00  1.06158E+03  1.036E+00  6.145E+00  1.844E-02  1.518E+00
   1    5   10     4     1    1.0000E+01  9.1391E-02   1.0903E+01  9.943E-01  0.000E+00  0.000E+00  1.07838E+03  6.557E-01  1.000E+01  2.500E-02  1.219E+00
   1    5    9     4     2    1.0903E+01  1.8527E-01   1.2706E+01  1.989E+00  0.000E+00  0.000E+00  1.07161E+03  7.053E-01  1.000E+01  5.000E-02  1.235E+00
   1    6    8     4     3    1.2706E+01  1.3156E-01   1.3967E+01  1.392E+00  0.000E+00  0.000E+00  1.06394E+03  7.589E-01  1.000E+01  3.500E-02  1.253E+00
   1    6    8     5     1    4.8048E+01  6.5097E-01   4.9091E+01  1.693E+00  0.000E+00  0.000E+00  1.05917E+03  1.168E+00  3.905E+01  1.562E-01  1.389E+00
   1    7    7     5     2    4.9091E+01  8.2731E-01   5.0380E+01  2.117E+00  0.000E+00  0.000E+00  1.05468E+03  1.177E+00  3.961E+01  1.980E-01  1.392E+00
   1    8    7     5     3    5.0380E+01  5.8797E-01   5.1274E+01  1.482E+00  0.000E+00  0.000E+00  1.05044E+03  1.186E+00  4.013E+01  1.404E-01  1.395E+00
   1    8    6     5     4    5.1274E+01  4.2438E-01   5.1908E+01  1.058E+00  0.000E+00  0.000E+00  1.04744E+03  1.193E+00  4.049E+01  1.012E-01  1.398E+00
   1    9    6     6     1    7.7260E+01  3.2586E-01   8.0275E+01  3.341E+00  0.000E+00  0.000E+00  1.04516E+03  2.431E+00  1.200E+01  6.000E-02  1.810E+00
   1   10    7     6     2    8.0275E+01  3.2918E-01   8.3287E+01  3.341E+00  0.000E+00  0.000E+00  1.04067E+03  2.486E+00  1.200E+01  6.000E-02  1.829E+00
   1   11    7     6     3    8.3287E+01  3.3245E-01   8.6296E+01  3.341E+00  0.000E+00  0.000E+00  1.03618E+03  2.541E+00  1.200E+01  6.000E-02  1.847E+00
   1   12    7     6     4    8.6296E+01  3.3567E-01   8.9301E+01  3.341E+00  0.000E+00  0.000E+00  1.03169E+03  2.595E+00  1.200E+01  6.000E-02  1.865E+00
   1   13    7     6     5    8.9301E+01  6.5989E-02   9.0571E+01  1.336E+00  0.000E+00  0.000E+00  1.02854E+03  2.632E+00  1.200E+01  2.400E-02  9.165E-01
   1   14    9     7     1    1.5000E+02  1.4694E+00   1.5168E+02  3.153E+00  0.000E+00  0.000E+00  1.03988E+03  2.296E+00  5.533E+01  5.597E-01  8.751E-01
   1   13    8     7     2    1.5168E+02  2.2789E+00   1.5287E+02  3.469E+00  0.000E+00  0.000E+00  1.03480E+03  2.303E+00  5.536E+01  6.161E-01  1.233E+00
   1   13    7     7     3    1.5287E+02  2.2058E+00   1.5382E+02  3.153E+00  0.000E+00  0.000E+00  1.02973E+03  2.309E+00  5.539E+01  5.603E-01  1.312E+00
   1   13    6     8     1    2.4439E+02  2.0931E+00   2.5893E+02  1.663E+01  0.000E+00  0.000E+00  1.02530E+03  3.420E+00  4.959E+01  5.053E-01  1.381E+00
   1   13    5     8     2    2.5893E+02  1.4680E+00   2.7410E+02  1.663E+01  0.000E+00  0.000E+00  1.01912E+03  3.494E+00  5.067E+01  5.163E-01  9.477E-01
   1   13    4     8     3    2.7410E+02  4.9436E-01   2.9024E+02  1.663E+01  0.000E+00  0.000E+00  1.01295E+03  3.570E+00  5.177E+01  5.275E-01  3.124E-01
   1   13    3     8     4    2.9024E+02 -1.3977E-01   3.0701E+02  1.663E+01  0.000E+00  0.000E+00  1.00677E+03  3.647E+00  5.288E+01  5.388E+00 -8.646E-03
   1   13    2     8     5    3.0701E+02  2.3303E-02   3.2362E+02  1.663E+01  0.000E+00  0.000E+00  1.00060E+03  3.722E+00  5.397E+01  5.499E-01  1.412E-02
   1   13    1     8     6    3.2362E+02  1.8189E-02   3.3358E+02  9.980E+00  0.000E+00  0.000E+00  9.95655E+02  3.780E+00  5.481E+01  3.351E-01  1.809E-02



 UBDSV3 SAVING "     NETRECHARGE" ON UNIT 100 AT TIME STEP  5, STRESS PERIOD   4
 UBDSV3 SAVING "    NETDISCHARGE" ON UNIT 101 AT TIME STEP  5, STRESS PERIOD   4
 UBDSV3 SAVING "           GW ET" ON UNIT  61 AT TIME STEP  5, STRESS PERIOD   4
 UBDSV3 SAVING "    UZF RECHARGE" ON UNIT  61 AT TIME STEP  5, STRESS PERIOD   4
 UBDSV3 SAVING " SURFACE LEAKAGE" ON UNIT  61 AT TIME STEP  5, STRESS PERIOD   4
 UBDSV3 SAVING "       HORT+DUNN" ON UNIT  61 AT TIME STEP  5, STRESS PERIOD   4
 UBDSV3 SAVING "  STORAGE CHANGE" ON UNIT  61 AT TIME STEP  5, STRESS PERIOD   4


UNSATURATED ZONE PACKAGE VOLUMETRIC BUDGET FOR  TIME STEP     5 STRESS PERIOD    4
  ------------------------------------------------------------------------------



     CUMULATIVE VOLUMES      L**3       RATES FOR THIS TIME STEP      L**3/T
     ------------------                 ------------------------

           IN:                                      IN:
           ---                                      ---
        INFILTRATION =    24328015.9170          INFILTRATION =           2.9000

          OUT:                                     OUT:
          ----                                     ----
              UZF ET =     2789021.7091                UZF ET =           0.8631
        UZF RECHARGE =     7744301.9319          UZF RECHARGE =           0.1430

            IN - OUT =    13794692.2760              IN - OUT =           1.8939

          STORAGE:                                 STORAGE:
          --------                                 --------
      STORAGE CHANGE =    13794692.2507        STORAGE CHANGE =           1.8939

 PERCENT DISCREPANCY IS DIFFERENCE BETWEEN IN-OUT MINUS CHANGE IN STORAGE
 DIVIDED BY THE AVERAGE OF IN AND OUT TIMES 100

 PERCENT DISCREPANCY =           0.00     PERCENT DISCREPANCY =           0.00






1
  VOLUMETRIC BUDGET FOR ENTIRE MODEL AT END OF TIME STEP    5, STRESS PERIOD   4
  ------------------------------------------------------------------------------

     CUMULATIVE VOLUMES      L**3       RATES FOR THIS TIME STEP      L**3/T
     ------------------                 ------------------------

           IN:                                      IN:
           ---                                      ---
             STORAGE =   189652544.0000               STORAGE =          31.0723
       CONSTANT HEAD =           0.0000         CONSTANT HEAD =           0.0000
               WELLS =           0.0000                 WELLS =           0.0000
     HEAD DEP BOUNDS =     2466120.2500       HEAD DEP BOUNDS =           0.2945
      STREAM LEAKAGE =   133589824.0000        STREAM LEAKAGE =          18.1549
        UZF RECHARGE =     7744306.5000          UZF RECHARGE =           0.1430
               GW ET =           0.0000                 GW ET =           0.0000
     SURFACE LEAKAGE =           0.0000       SURFACE LEAKAGE =           0.0000

            TOTAL IN =   333452800.0000              TOTAL IN =          49.6646

          OUT:                                     OUT:
          ----                                     ----
             STORAGE =     2981428.2500               STORAGE =           3.0633
       CONSTANT HEAD =           0.0000         CONSTANT HEAD =           0.0000
               WELLS =   256718880.0000                 WELLS =          40.0000
     HEAD DEP BOUNDS =     2395563.0000       HEAD DEP BOUNDS =           0.2888
      STREAM LEAKAGE =    32317962.0000        STREAM LEAKAGE =           0.1398
        UZF RECHARGE =           0.0000          UZF RECHARGE =           0.0000
               GW ET =    39046416.0000                 GW ET =           6.1743
     SURFACE LEAKAGE =           0.0000       SURFACE LEAKAGE =           0.0000

           TOTAL OUT =   333460224.0000             TOTAL OUT =          49.6662

            IN - OUT =       -7424.0000              IN - OUT =      -1.5564E-03

 PERCENT DISCREPANCY =          -0.00     PERCENT DISCREPANCY =          -0.00






         TIME SUMMARY AT END OF TIME STEP    5 IN STRESS PERIOD    4
                    SECONDS     MINUTES      HOURS       DAYS        YEARS
                    -----------------------------------------------------------
   TIME STEP LENGTH 1.21100E+05  2018.3      33.639      1.4016     3.83743E-03
 STRESS PERIOD TIME 5.04972E+05  8416.2      140.27      5.8446     1.60016E-02
         TOTAL TIME 8.38897E+06 1.39816E+05  2330.3      97.095     0.26583    
1
 
 SOLVING FOR HEAD 
                                                   Max.-Head-Change                         Max.-Flux-Residual
  Residual-Control   Outer-Iter.   Inner-Iter.     Column Row Layer    Maximum-Head-Change  Column Row Layer    Maximum-Flux-Residual          L2-NORM 
          0                 1           2             4    8     1      -0.5958036453E-01       4    8    1        -0.2056426519E+01      0.6062312832E+01
          0                 2           2             4    8     1       0.5903799477E-02       4    8    1         0.2056394820E+00      0.5911793253E+00
          0                 3           2             4    8     1      -0.5265167977E-03       4    8    1        -0.1850758679E-01      0.5287489132E-01
          0                 4           1             4    8     1       0.4179130656E-04       4    8    1         0.1482457811E-02      0.4230106731E-02

    ------------------------------------------------
       NWT REQUIRED            4 OUTER ITERATIONS 
       AND A TOTAL OF          7 INNER ITERATIONS.
    ------------------------------------------------

 NO OUTPUT CONTROL FOR STRESS PERIOD    4   TIME STEP    6
 
 SOLVING FOR HEAD 
                                                   Max.-Head-Change                         Max.-Flux-Residual
  Residual-Control   Outer-Iter.   Inner-Iter.     Column Row Layer    Maximum-Head-Change  Column Row Layer    Maximum-Flux-Residual          L2-NORM 
          0                 1           2             4    8     1      -0.6485106774E-01       4    8    1        -0.2036724133E+01      0.6001256997E+01
          0                 2           2             4    8     1       0.6426057949E-02       4    8    1         0.2036687189E+00      0.5960183635E+00
          0                 3           2             4    8     1      -0.5730933580E-03       4    8    1        -0.1833022325E-01      0.5268845707E-01
          0                 4           1             4    8     1       0.4548823496E-04       4    8    1         0.1468250949E-02      0.4203639884E-02

    ------------------------------------------------
       NWT REQUIRED            4 OUTER ITERATIONS 
       AND A TOTAL OF          7 INNER ITERATIONS.
    ------------------------------------------------

 NO OUTPUT CONTROL FOR STRESS PERIOD    4   TIME STEP    7
 
 SOLVING FOR HEAD 
                                                   Max.-Head-Change                         Max.-Flux-Residual
  Residual-Control   Outer-Iter.   Inner-Iter.     Column Row Layer    Maximum-Head-Change  Column Row Layer    Maximum-Flux-Residual          L2-NORM 
          0                 1           2             4    8     1      -0.7051816454E-01       4    8    1        -0.2015365798E+01      0.5932709313E+01
          0                 2           2             4    8     1       0.6987589921E-02       4    8    1         0.2015322778E+00      0.5859244653E+00
          0                 3           2             4    8     1      -0.6231724848E-03       4    8    1        -0.1813794950E-01      0.5218713341E-01
          0                 4           1             4    8     1       0.4946317291E-04       4    8    1         0.1452849790E-02      0.4171425099E-02

    ------------------------------------------------
       NWT REQUIRED            4 OUTER ITERATIONS 
       AND A TOTAL OF          7 INNER ITERATIONS.
    ------------------------------------------------

 NO OUTPUT CONTROL FOR STRESS PERIOD    4   TIME STEP    8
 
 SOLVING FOR HEAD 
                                                   Max.-Head-Change                         Max.-Flux-Residual
  Residual-Control   Outer-Iter.   Inner-Iter.     Column Row Layer    Maximum-Head-Change  Column Row Layer    Maximum-Flux-Residual          L2-NORM 
          0                 1           2             4    8     1      -0.7659844432E-01       4    8    1        -0.1992254306E+01      0.5852426571E+01
          0                 2           2             4    8     1       0.7590057683E-02       4    8    1         0.1992204275E+00      0.5766415924E+00
          0                 3           2             4    8     1      -0.6769024394E-03       4    8    1        -0.1792988983E-01      0.5169911002E-01
          0                 4           1             4    8     1       0.5372788725E-04       4    8    1         0.1436184149E-02      0.4137847491E-02

    ------------------------------------------------
       NWT REQUIRED            4 OUTER ITERATIONS 
       AND A TOTAL OF          7 INNER ITERATIONS.
    ------------------------------------------------

 NO OUTPUT CONTROL FOR STRESS PERIOD    4   TIME STEP    9
 
 SOLVING FOR HEAD 
                                                   Max.-Head-Change                         Max.-Flux-Residual
  Residual-Control   Outer-Iter.   Inner-Iter.     Column Row Layer    Maximum-Head-Change  Column Row Layer    Maximum-Flux-Residual          L2-NORM 
          0                 1           2             4    8     1      -0.8310730491E-01       4    8    1        -0.1967303444E+01      0.5773080414E+01
          0                 2           2             4    8     1       0.8234985324E-02       4    8    1         0.1967245356E+00      0.5710778517E+00
          0                 3           2             4    8     1      -0.7344191605E-03       4    8    1        -0.1770526743E-01      0.5125172516E-01
          0                 4           1             4    8     1       0.5829316930E-04       4    8    1         0.1418191832E-02      0.4102851321E-02

    ------------------------------------------------
       NWT REQUIRED            4 OUTER ITERATIONS 
       AND A TOTAL OF          7 INNER ITERATIONS.
    ------------------------------------------------

 OUTPUT CONTROL FOR STRESS PERIOD    4   TIME STEP   10
    PRINT BUDGET
    SAVE BUDGET

            WELLS   PERIOD    4   STEP  10
 WELL      1   LAYER   1   ROW     6   COL     4   RATE    -4.00000    
 WELL      2   LAYER   1   ROW     6   COL     5   RATE    -4.00000    
 WELL      3   LAYER   1   ROW     7   COL     4   RATE    -4.00000    
 WELL      4   LAYER   1   ROW     7   COL     5   RATE    -4.00000    
 WELL      5   LAYER   1   ROW     8   COL     4   RATE    -4.00000    
 WELL      6   LAYER   1   ROW     8   COL     5   RATE    -4.00000    
 WELL      7   LAYER   1   ROW     9   COL     4   RATE    -4.00000    
 WELL      8   LAYER   1   ROW     9   COL     5   RATE    -4.00000    
 WELL      9   LAYER   1   ROW    10   COL     4   RATE    -4.00000    
 WELL     10   LAYER   1   ROW    10   COL     5   RATE    -4.00000    

  HEAD DEP BOUNDS   PERIOD    4   STEP    10
 BOUNDARY      1   LAYER   1   ROW    13   COL     1   RATE   -0.293171    
 BOUNDARY      2   LAYER   1   ROW    14   COL     9   RATE    0.294538    



 STREAM LISTING     PERIOD      4   STEP       10

 LAYER ROW COL. STREAM  RCH.  FLOW INTO     FLOW TO   FLOW OUT OF   OVRLND.     DIRECT     STREAM       STREAM     STREAM     STREAM   STREAMBED  STREAMBED
                SEG.NO.  NO.  STRM. RCH.    AQUIFER    STRM. RCH.    RUNOFF     PRECIP       ET          HEAD       DEPTH      WIDTH   CONDCTNC.   GRADIENT

   1    1    1     1     1    2.5000E+01  2.4841E-01   2.6177E+01  1.425E+00  0.000E+00  0.000E+00  1.09424E+03  1.189E+00  1.318E+01  5.930E-02  1.396E+00
   1    2    2     1     2    2.6177E+01  3.9690E-01   2.7997E+01  2.217E+00  0.000E+00  0.000E+00  1.08927E+03  1.210E+00  1.347E+01  9.427E-02  1.403E+00
   1    3    3     1     3    2.7997E+01  3.5002E-01   2.9547E+01  1.900E+00  0.000E+00  0.000E+00  1.08365E+03  1.234E+00  1.378E+01  8.268E-02  1.411E+00
   1    3    4     1     4    2.9547E+01  3.3150E-01   3.0973E+01  1.758E+00  0.000E+00  0.000E+00  1.07866E+03  1.252E+00  1.405E+01  7.796E-02  1.417E+00
   1    4    5     2     1    2.0973E+01  3.2007E-01   2.2051E+01  1.398E+00  0.000E+00  0.000E+00  1.07304E+03  1.103E+00  1.200E+01  7.800E-02  1.368E+00
   1    5    6     2     2    2.2051E+01  2.4795E-01   2.2879E+01  1.075E+00  0.000E+00  0.000E+00  1.06764E+03  1.133E+00  1.200E+01  6.000E-02  1.378E+00
   1    6    6     2     3    2.2879E+01  2.4944E-01   2.3705E+01  1.075E+00  0.000E+00  0.000E+00  1.06295E+03  1.157E+00  1.200E+01  6.000E-02  1.386E+00
   1    7    6     2     4    2.3705E+01  2.5091E-01   2.4529E+01  1.075E+00  0.000E+00  0.000E+00  1.05826E+03  1.182E+00  1.200E+01  6.000E-02  1.394E+00
   1    8    6     2     5    2.4529E+01  2.5235E-01   2.5352E+01  1.075E+00  0.000E+00  0.000E+00  1.05356E+03  1.206E+00  1.200E+01  6.000E-02  1.402E+00
   1    3    5     3     1    1.0000E+01  2.8252E-01   1.4308E+01  4.591E+00  0.000E+00  0.000E+00  1.07555E+03  1.909E+00  9.636E+00  7.227E-02  1.955E+00
   1    3    6     3     2    1.4308E+01  2.4905E-01   1.8650E+01  4.591E+00  0.000E+00  0.000E+00  1.07264E+03  1.727E+00  8.909E+00  6.682E-02  1.864E+00
   1    3    7     3     3    1.8650E+01  1.9718E-01   2.2585E+01  4.132E+00  0.000E+00  0.000E+00  1.06987E+03  1.555E+00  8.218E+00  5.547E-02  1.777E+00
   1    4    8     3     4    2.2585E+01  2.2567E-01   2.7868E+01  5.509E+00  0.000E+00  0.000E+00  1.06682E+03  1.364E+00  7.455E+00  6.709E-02  1.682E+00
   1    5    8     3     5    2.7868E+01  1.5790E-01   3.2301E+01  4.591E+00  0.000E+00  0.000E+00  1.06362E+03  1.164E+00  6.655E+00  4.991E-02  1.582E+00
   1    6    8     3     6    3.2301E+01  5.5980E-02   3.4082E+01  1.836E+00  0.000E+00  0.000E+00  1.06158E+03  1.036E+00  6.145E+00  1.844E-02  1.518E+00
   1    5   10     4     1    1.0000E+01  9.1391E-02   1.0903E+01  9.943E-01  0.000E+00  0.000E+00  1.07838E+03  6.557E-01  1.000E+01  2.500E-02  1.219E+00
   1    5    9     4     2    1.0903E+01  1.8527E-01   1.2706E+01  1.989E+00  0.000E+00  0.000E+00  1.07161E+03  7.053E-01  1.000E+01  5.000E-02  1.235E+00
   1    6    8     4     3    1.2706E+01  1.3156E-01   1.3967E+01  1.392E+00  0.000E+00  0.000E+00  1.06394E+03  7.589E-01  1.000E+01  3.500E-02  1.253E+00
   1    6    8     5     1    4.8048E+01  6.5097E-01   4.9091E+01  1.693E+00  0.000E+00  0.000E+00  1.05917E+03  1.168E+00  3.905E+01  1.562E-01  1.389E+00
   1    7    7     5     2    4.9091E+01  8.2731E-01   5.0380E+01  2.117E+00  0.000E+00  0.000E+00  1.05468E+03  1.177E+00  3.961E+01  1.980E-01  1.392E+00
   1    8    7     5     3    5.0380E+01  5.8797E-01   5.1274E+01  1.482E+00  0.000E+00  0.000E+00  1.05044E+03  1.186E+00  4.013E+01  1.404E-01  1.395E+00
   1    8    6     5     4    5.1274E+01  4.2438E-01   5.1908E+01  1.058E+00  0.000E+00  0.000E+00  1.04744E+03  1.193E+00  4.049E+01  1.012E-01  1.398E+00
   1    9    6     6     1    7.7260E+01  3.2586E-01   8.0275E+01  3.341E+00  0.000E+00  0.000E+00  1.04516E+03  2.431E+00  1.200E+01  6.000E-02  1.810E+00
   1   10    7     6     2    8.0275E+01  3.2918E-01   8.3287E+01  3.341E+00  0.000E+00  0.000E+00  1.04067E+03  2.486E+00  1.200E+01  6.000E-02  1.829E+00
   1   11    7     6     3    8.3287E+01  3.3245E-01   8.6296E+01  3.341E+00  0.000E+00  0.000E+00  1.03618E+03  2.541E+00  1.200E+01  6.000E-02  1.847E+00
   1   12    7     6     4    8.6296E+01  3.3567E-01   8.9301E+01  3.341E+00  0.000E+00  0.000E+00  1.03169E+03  2.595E+00  1.200E+01  6.000E-02  1.865E+00
   1   13    7     6     5    8.9301E+01  6.5928E-02   9.0571E+01  1.336E+00  0.000E+00  0.000E+00  1.02854E+03  2.632E+00  1.200E+01  2.400E-02  9.157E-01
   1   14    9     7     1    1.5000E+02  1.4705E+00   1.5168E+02  3.153E+00  0.000E+00  0.000E+00  1.03988E+03  2.296E+00  5.533E+01  5.597E-01  8.758E-01
   1   13    8     7     2    1.5168E+02  2.2792E+00   1.5287E+02  3.469E+00  0.000E+00  0.000E+00  1.03480E+03  2.303E+00  5.536E+01  6.161E-01  1.233E+00
   1   13    7     7     3    1.5287E+02  2.2043E+00   1.5382E+02  3.153E+00  0.000E+00  0.000E+00  1.02973E+03  2.309E+00  5.539E+01  5.603E-01  1.311E+00
   1   13    6     8     1    2.4439E+02  2.0856E+00   2.5894E+02  1.663E+01  0.000E+00  0.000E+00  1.02530E+03  3.420E+00  4.959E+01  5.054E-01  1.376E+00
   1   13    5     8     2    2.5894E+02  1.4676E+00   2.7411E+02  1.663E+01  0.000E+00  0.000E+00  1.01912E+03  3.494E+00  5.067E+01  5.163E-01  9.474E-01
   1   13    4     8     3    2.7411E+02  4.9069E-01   2.9025E+02  1.663E+01  0.000E+00  0.000E+00  1.01295E+03  3.570E+00  5.177E+01  5.275E-01  3.101E-01
   1   13    3     8     4    2.9025E+02 -5.9057E-01   3.0747E+02  1.663E+01  0.000E+00  0.000E+00  1.00677E+03  3.648E+00  5.289E+01  5.390E+00 -3.652E-02
   1   13    2     8     5    3.0747E+02 -4.2956E-01   3.2454E+02  1.663E+01  0.000E+00  0.000E+00  1.00060E+03  3.725E+00  5.401E+01  5.504E+00 -2.602E-02
   1   13    1     8     6    3.2454E+02 -1.8704E-01   3.3471E+02  9.980E+00  0.000E+00  0.000E+00  9.95659E+02  3.784E+00  5.487E+01  3.355E+00 -1.858E-02



 UBDSV3 SAVING "     NETRECHARGE" ON UNIT 100 AT TIME STEP 10, STRESS PERIOD   4
 UBDSV3 SAVING "    NETDISCHARGE" ON UNIT 101 AT TIME STEP 10, STRESS PERIOD   4
 UBDSV3 SAVING "           GW ET" ON UNIT  61 AT TIME STEP 10, STRESS PERIOD   4
 UBDSV3 SAVING "    UZF RECHARGE" ON UNIT  61 AT TIME STEP 10, STRESS PERIOD   4
 UBDSV3 SAVING " SURFACE LEAKAGE" ON UNIT  61 AT TIME STEP 10, STRESS PERIOD   4
 UBDSV3 SAVING "       HORT+DUNN" ON UNIT  61 AT TIME STEP 10, STRESS PERIOD   4
 UBDSV3 SAVING "  STORAGE CHANGE" ON UNIT  61 AT TIME STEP 10, STRESS PERIOD   4


UNSATURATED ZONE PACKAGE VOLUMETRIC BUDGET FOR  TIME STEP    10 STRESS PERIOD    4
  ------------------------------------------------------------------------------



     CUMULATIVE VOLUMES      L**3       RATES FOR THIS TIME STEP      L**3/T
     ------------------                 ------------------------

           IN:                                      IN:
           ---                                      ---
        INFILTRATION =    26686475.1846          INFILTRATION =           2.9000

          OUT:                                     OUT:
          ----                                     ----
              UZF ET =     3530287.4911                UZF ET =           0.9409
        UZF RECHARGE =     7827699.7685          UZF RECHARGE =           0.0747

            IN - OUT =    15328487.9250              IN - OUT =           1.8843

          STORAGE:                                 STORAGE:
          --------                                 --------
      STORAGE CHANGE =    15328487.8644        STORAGE CHANGE =           1.8843

 PERCENT DISCREPANCY IS DIFFERENCE BETWEEN IN-OUT MINUS CHANGE IN STORAGE
 DIVIDED BY THE AVERAGE OF IN AND OUT TIMES 100

 PERCENT DISCREPANCY =           0.00     PERCENT DISCREPANCY =           0.00






1
  VOLUMETRIC BUDGET FOR ENTIRE MODEL AT END OF TIME STEP   10, STRESS PERIOD   4
  ------------------------------------------------------------------------------

     CUMULATIVE VOLUMES      L**3       RATES FOR THIS TIME STEP      L**3/T
     ------------------                 ------------------------

           IN:                                      IN:
           ---                                      ---
             STORAGE =   214790624.0000               STORAGE =          30.8203
       CONSTANT HEAD =           0.0000         CONSTANT HEAD =           0.0000
               WELLS =           0.0000                 WELLS =           0.0000
     HEAD DEP BOUNDS =     2705631.7500       HEAD DEP BOUNDS =           0.2945
      STREAM LEAKAGE =   148317760.0000        STREAM LEAKAGE =          18.1017
        UZF RECHARGE =     7827704.5000          UZF RECHARGE =       7.4737E-02
               GW ET =           0.0000                 GW ET =           0.0000
     SURFACE LEAKAGE =           0.0000       SURFACE LEAKAGE =           0.0000

            TOTAL IN =   373641728.0000              TOTAL IN =          49.2913

          OUT:                                     OUT:
          ----                                     ----
             STORAGE =     4779422.0000               STORAGE =           1.6251
       CONSTANT HEAD =           0.0000         CONSTANT HEAD =           0.0000
               WELLS =   289249344.0000                 WELLS =          40.0000
     HEAD DEP BOUNDS =     2632691.0000       HEAD DEP BOUNDS =           0.2932
      STREAM LEAKAGE =    32924680.0000        STREAM LEAKAGE =           1.2072
        UZF RECHARGE =           0.0000          UZF RECHARGE =           0.0000
               GW ET =    44064280.0000                 GW ET =           6.1675
     SURFACE LEAKAGE =           0.0000       SURFACE LEAKAGE =           0.0000

           TOTAL OUT =   373650432.0000             TOTAL OUT =          49.2929

            IN - OUT =       -8704.0000              IN - OUT =      -1.5526E-03

 PERCENT DISCREPANCY =          -0.00     PERCENT DISCREPANCY =          -0.00






         TIME SUMMARY AT END OF TIME STEP   10 IN STRESS PERIOD    4
                    SECONDS     MINUTES      HOURS       DAYS        YEARS
                    -----------------------------------------------------------
   TIME STEP LENGTH 1.95033E+05  3250.6      54.176      2.2573     6.18023E-03
 STRESS PERIOD TIME 1.31823E+06  21971.      366.18      15.257     4.17723E-02
         TOTAL TIME 9.20223E+06 1.53371E+05  2556.2      106.51     0.29160    
1
 
 SOLVING FOR HEAD 
                                                   Max.-Head-Change                         Max.-Flux-Residual
  Residual-Control   Outer-Iter.   Inner-Iter.     Column Row Layer    Maximum-Head-Change  Column Row Layer    Maximum-Flux-Residual          L2-NORM 
          0                 1           2             4    8     1      -0.9005800873E-01       4    8    1        -0.1940429851E+01      0.5697796064E+01
          0                 2           2             4    8     1       0.8923684994E-02       4    8    1         0.1940362546E+00      0.5653717042E+00
          0                 3           2             4    8     1      -0.7958396896E-03       4    8    1        -0.1746333116E-01      0.5077934346E-01
          0                 4           1             4    8     1       0.6316830768E-04       4    8    1         0.1398812662E-02      0.4065660183E-02

    ------------------------------------------------
       NWT REQUIRED            4 OUTER ITERATIONS 
       AND A TOTAL OF          7 INNER ITERATIONS.
    ------------------------------------------------

 NO OUTPUT CONTROL FOR STRESS PERIOD    4   TIME STEP   11
 
 SOLVING FOR HEAD 
                                                   Max.-Head-Change                         Max.-Flux-Residual
  Residual-Control   Outer-Iter.   Inner-Iter.     Column Row Layer    Maximum-Head-Change  Column Row Layer    Maximum-Flux-Residual          L2-NORM 
          0                 1           2             4    8     1      -0.9746136696E-01       4    8    1        -0.1911560843E+01      0.5625360053E+01
          0                 2           2             4    8     1       0.9657225556E-02       4    8    1         0.1911483053E+00      0.5594920815E+00
          0                 3           2             4    8     1      -0.8612593745E-03       4    8    1        -0.1720342599E-01      0.5028141973E-01
          0                 4           1             4    8     1       0.6836087068E-04       4    8    1         0.1377994167E-02      0.4026283632E-02

    ------------------------------------------------
       NWT REQUIRED            4 OUTER ITERATIONS 
       AND A TOTAL OF          7 INNER ITERATIONS.
    ------------------------------------------------

 NO OUTPUT CONTROL FOR STRESS PERIOD    4   TIME STEP   12
 
 SOLVING FOR HEAD 
                                                   Max.-Head-Change                         Max.-Flux-Residual
  Residual-Control   Outer-Iter.   Inner-Iter.     Column Row Layer    Maximum-Head-Change  Column Row Layer    Maximum-Flux-Residual          L2-NORM 
          0                 1           2             4    8     1      -0.1053255788E+00       4    8    1        -0.1880641564E+01      0.5554627351E+01
          0                 2           2             4    8     1       0.1043641662E-01       4    8    1         0.1880551918E+00      0.5534053053E+00
          0                 3           2             4    8     1      -0.9307504469E-03       4    8    1        -0.1692505737E-01      0.4975594432E-01
          0                 4           1             4    8     1       0.7387659110E-04       4    8    1         0.1355696744E-02      0.3984552829E-02

    ------------------------------------------------
       NWT REQUIRED            4 OUTER ITERATIONS 
       AND A TOTAL OF          7 INNER ITERATIONS.
    ------------------------------------------------

 NO OUTPUT CONTROL FOR STRESS PERIOD    4   TIME STEP   13
 
 SOLVING FOR HEAD 
                                                   Max.-Head-Change                         Max.-Flux-Residual
  Residual-Control   Outer-Iter.   Inner-Iter.     Column Row Layer    Maximum-Head-Change  Column Row Layer    Maximum-Flux-Residual          L2-NORM 
          0                 1           2             4    8     1      -0.1136554030E+00       4    8    1        -0.1847628483E+01      0.5484588076E+01
          0                 2           2             4    8     1       0.1126172643E-01       4    8    1         0.1847525524E+00      0.5471089084E+00
          0                 3           2             4    8     1      -0.1004354699E-02       4    8    1        -0.1662783286E-01      0.4920636676E-01
          0                 4           1             4    8     1       0.7971878577E-04       4    8    1         0.1331888953E-02      0.3940812342E-02

    ------------------------------------------------
       NWT REQUIRED            4 OUTER ITERATIONS 
       AND A TOTAL OF          7 INNER ITERATIONS.
    ------------------------------------------------

 NO OUTPUT CONTROL FOR STRESS PERIOD    4   TIME STEP   14
 
 SOLVING FOR HEAD 
                                                   Max.-Head-Change                         Max.-Flux-Residual
  Residual-Control   Outer-Iter.   Inner-Iter.     Column Row Layer    Maximum-Head-Change  Column Row Layer    Maximum-Flux-Residual          L2-NORM 
          0                 1           2             4    8     1      -0.1224521815E+00       4    8    1        -0.1812499031E+01      0.5414389450E+01
          0                 2           2             4    8     1       0.1213328423E-01       4    8    1         0.1812381239E+00      0.5405794545E+00
          0                 3           2             4    8     1      -0.1082083693E-02       4    8    1        -0.1631154882E-01      0.4863044805E-01
          0                 4           1             4    8     1       0.8588837118E-04       4    8    1         0.1306554472E-02      0.3894885864E-02

    ------------------------------------------------
       NWT REQUIRED            4 OUTER ITERATIONS 
       AND A TOTAL OF          7 INNER ITERATIONS.
    ------------------------------------------------

 OUTPUT CONTROL FOR STRESS PERIOD    4   TIME STEP   15
    PRINT BUDGET
    PRINT HEAD FOR ALL LAYERS
    SAVE HEAD FOR ALL LAYERS
    SAVE BUDGET

            WELLS   PERIOD    4   STEP  15
 WELL      1   LAYER   1   ROW     6   COL     4   RATE    -4.00000    
 WELL      2   LAYER   1   ROW     6   COL     5   RATE    -4.00000    
 WELL      3   LAYER   1   ROW     7   COL     4   RATE    -4.00000    
 WELL      4   LAYER   1   ROW     7   COL     5   RATE    -4.00000    
 WELL      5   LAYER   1   ROW     8   COL     4   RATE    -4.00000    
 WELL      6   LAYER   1   ROW     8   COL     5   RATE    -4.00000    
 WELL      7   LAYER   1   ROW     9   COL     4   RATE    -4.00000    
 WELL      8   LAYER   1   ROW     9   COL     5   RATE    -4.00000    
 WELL      9   LAYER   1   ROW    10   COL     4   RATE    -4.00000    
 WELL     10   LAYER   1   ROW    10   COL     5   RATE    -4.00000    

  HEAD DEP BOUNDS   PERIOD    4   STEP    15
 BOUNDARY      1   LAYER   1   ROW    13   COL     1   RATE   -0.296718    
 BOUNDARY      2   LAYER   1   ROW    14   COL     9   RATE    0.294657    



 STREAM LISTING     PERIOD      4   STEP       15

 LAYER ROW COL. STREAM  RCH.  FLOW INTO     FLOW TO   FLOW OUT OF   OVRLND.     DIRECT     STREAM       STREAM     STREAM     STREAM   STREAMBED  STREAMBED
                SEG.NO.  NO.  STRM. RCH.    AQUIFER    STRM. RCH.    RUNOFF     PRECIP       ET          HEAD       DEPTH      WIDTH   CONDCTNC.   GRADIENT

   1    1    1     1     1    2.5000E+01  2.4841E-01   2.6177E+01  1.425E+00  0.000E+00  0.000E+00  1.09424E+03  1.189E+00  1.318E+01  5.930E-02  1.396E+00
   1    2    2     1     2    2.6177E+01  3.9690E-01   2.7997E+01  2.217E+00  0.000E+00  0.000E+00  1.08927E+03  1.210E+00  1.347E+01  9.427E-02  1.403E+00
   1    3    3     1     3    2.7997E+01  3.5002E-01   2.9547E+01  1.900E+00  0.000E+00  0.000E+00  1.08365E+03  1.234E+00  1.378E+01  8.268E-02  1.411E+00
   1    3    4     1     4    2.9547E+01  3.3150E-01   3.0973E+01  1.758E+00  0.000E+00  0.000E+00  1.07866E+03  1.252E+00  1.405E+01  7.796E-02  1.417E+00
   1    4    5     2     1    2.0973E+01  3.2007E-01   2.2051E+01  1.398E+00  0.000E+00  0.000E+00  1.07304E+03  1.103E+00  1.200E+01  7.800E-02  1.368E+00
   1    5    6     2     2    2.2051E+01  2.4795E-01   2.2879E+01  1.075E+00  0.000E+00  0.000E+00  1.06764E+03  1.133E+00  1.200E+01  6.000E-02  1.378E+00
   1    6    6     2     3    2.2879E+01  2.4944E-01   2.3705E+01  1.075E+00  0.000E+00  0.000E+00  1.06295E+03  1.157E+00  1.200E+01  6.000E-02  1.386E+00
   1    7    6     2     4    2.3705E+01  2.5091E-01   2.4529E+01  1.075E+00  0.000E+00  0.000E+00  1.05826E+03  1.182E+00  1.200E+01  6.000E-02  1.394E+00
   1    8    6     2     5    2.4529E+01  2.5235E-01   2.5352E+01  1.075E+00  0.000E+00  0.000E+00  1.05356E+03  1.206E+00  1.200E+01  6.000E-02  1.402E+00
   1    3    5     3     1    1.0000E+01  2.8252E-01   1.4308E+01  4.591E+00  0.000E+00  0.000E+00  1.07555E+03  1.909E+00  9.636E+00  7.227E-02  1.955E+00
   1    3    6     3     2    1.4308E+01  2.4905E-01   1.8650E+01  4.591E+00  0.000E+00  0.000E+00  1.07264E+03  1.727E+00  8.909E+00  6.682E-02  1.864E+00
   1    3    7     3     3    1.8650E+01  1.9718E-01   2.2585E+01  4.132E+00  0.000E+00  0.000E+00  1.06987E+03  1.555E+00  8.218E+00  5.547E-02  1.777E+00
   1    4    8     3     4    2.2585E+01  2.2567E-01   2.7868E+01  5.509E+00  0.000E+00  0.000E+00  1.06682E+03  1.364E+00  7.455E+00  6.709E-02  1.682E+00
   1    5    8     3     5    2.7868E+01  1.5790E-01   3.2301E+01  4.591E+00  0.000E+00  0.000E+00  1.06362E+03  1.164E+00  6.655E+00  4.991E-02  1.582E+00
   1    6    8     3     6    3.2301E+01  5.5980E-02   3.4082E+01  1.836E+00  0.000E+00  0.000E+00  1.06158E+03  1.036E+00  6.145E+00  1.844E-02  1.518E+00
   1    5   10     4     1    1.0000E+01  9.1391E-02   1.0903E+01  9.943E-01  0.000E+00  0.000E+00  1.07838E+03  6.557E-01  1.000E+01  2.500E-02  1.219E+00
   1    5    9     4     2    1.0903E+01  1.8527E-01   1.2706E+01  1.989E+00  0.000E+00  0.000E+00  1.07161E+03  7.053E-01  1.000E+01  5.000E-02  1.235E+00
   1    6    8     4     3    1.2706E+01  1.3156E-01   1.3967E+01  1.392E+00  0.000E+00  0.000E+00  1.06394E+03  7.589E-01  1.000E+01  3.500E-02  1.253E+00
   1    6    8     5     1    4.8048E+01  6.5097E-01   4.9091E+01  1.693E+00  0.000E+00  0.000E+00  1.05917E+03  1.168E+00  3.905E+01  1.562E-01  1.389E+00
   1    7    7     5     2    4.9091E+01  8.2731E-01   5.0380E+01  2.117E+00  0.000E+00  0.000E+00  1.05468E+03  1.177E+00  3.961E+01  1.980E-01  1.392E+00
   1    8    7     5     3    5.0380E+01  5.8797E-01   5.1274E+01  1.482E+00  0.000E+00  0.000E+00  1.05044E+03  1.186E+00  4.013E+01  1.404E-01  1.395E+00
   1    8    6     5     4    5.1274E+01  4.2438E-01   5.1908E+01  1.058E+00  0.000E+00  0.000E+00  1.04744E+03  1.193E+00  4.049E+01  1.012E-01  1.398E+00
   1    9    6     6     1    7.7260E+01  3.2586E-01   8.0275E+01  3.341E+00  0.000E+00  0.000E+00  1.04516E+03  2.431E+00  1.200E+01  6.000E-02  1.810E+00
   1   10    7     6     2    8.0275E+01  3.2918E-01   8.3287E+01  3.341E+00  0.000E+00  0.000E+00  1.04067E+03  2.486E+00  1.200E+01  6.000E-02  1.829E+00
   1   11    7     6     3    8.3287E+01  3.3245E-01   8.6296E+01  3.341E+00  0.000E+00  0.000E+00  1.03618E+03  2.541E+00  1.200E+01  6.000E-02  1.847E+00
   1   12    7     6     4    8.6296E+01  3.3567E-01   8.9301E+01  3.341E+00  0.000E+00  0.000E+00  1.03169E+03  2.595E+00  1.200E+01  6.000E-02  1.865E+00
   1   13    7     6     5    8.9301E+01  6.5871E-02   9.0571E+01  1.336E+00  0.000E+00  0.000E+00  1.02854E+03  2.632E+00  1.200E+01  2.400E-02  9.149E-01
   1   14    9     7     1    1.5000E+02  1.4723E+00   1.5168E+02  3.153E+00  0.000E+00  0.000E+00  1.03988E+03  2.296E+00  5.533E+01  5.597E-01  8.768E-01
   1   13    8     7     2    1.5168E+02  2.2797E+00   1.5287E+02  3.469E+00  0.000E+00  0.000E+00  1.03480E+03  2.303E+00  5.536E+01  6.161E-01  1.233E+00
   1   13    7     7     3    1.5287E+02  2.2030E+00   1.5382E+02  3.153E+00  0.000E+00  0.000E+00  1.02973E+03  2.309E+00  5.539E+01  5.603E-01  1.310E+00
   1   13    6     8     1    2.4439E+02  2.0807E+00   2.5894E+02  1.663E+01  0.000E+00  0.000E+00  1.02530E+03  3.420E+00  4.959E+01  5.054E-01  1.372E+00
   1   13    5     8     2    2.5894E+02  1.4709E+00   2.7411E+02  1.663E+01  0.000E+00  0.000E+00  1.01912E+03  3.494E+00  5.067E+01  5.163E-01  9.496E-01
   1   13    4     8     3    2.7411E+02  4.8917E-01   2.9025E+02  1.663E+01  0.000E+00  0.000E+00  1.01295E+03  3.570E+00  5.177E+01  5.275E-01  3.091E-01
   1   13    3     8     4    2.9025E+02 -7.9859E-01   3.0768E+02  1.663E+01  0.000E+00  0.000E+00  1.00677E+03  3.648E+00  5.290E+01  5.391E+00 -4.938E-02
   1   13    2     8     5    3.0768E+02 -7.8539E-01   3.2510E+02  1.663E+01  0.000E+00  0.000E+00  1.00060E+03  3.727E+00  5.404E+01  5.506E+00 -4.754E-02
   1   13    1     8     6    3.2510E+02 -4.9022E-01   3.3557E+02  9.980E+00  0.000E+00  0.000E+00  9.95662E+02  3.787E+00  5.492E+01  3.358E+00 -4.867E-02



 UBDSV3 SAVING "     NETRECHARGE" ON UNIT 100 AT TIME STEP 15, STRESS PERIOD   4
 UBDSV3 SAVING "    NETDISCHARGE" ON UNIT 101 AT TIME STEP 15, STRESS PERIOD   4
 UBDSV3 SAVING "           GW ET" ON UNIT  61 AT TIME STEP 15, STRESS PERIOD   4
 UBDSV3 SAVING "    UZF RECHARGE" ON UNIT  61 AT TIME STEP 15, STRESS PERIOD   4
 UBDSV3 SAVING " SURFACE LEAKAGE" ON UNIT  61 AT TIME STEP 15, STRESS PERIOD   4
 UBDSV3 SAVING "       HORT+DUNN" ON UNIT  61 AT TIME STEP 15, STRESS PERIOD   4
 UBDSV3 SAVING "  STORAGE CHANGE" ON UNIT  61 AT TIME STEP 15, STRESS PERIOD   4


UNSATURATED ZONE PACKAGE VOLUMETRIC BUDGET FOR  TIME STEP    15 STRESS PERIOD    4
  ------------------------------------------------------------------------------



     CUMULATIVE VOLUMES      L**3       RATES FOR THIS TIME STEP      L**3/T
     ------------------                 ------------------------

           IN:                                      IN:
           ---                                      ---
        INFILTRATION =    30484797.5361          INFILTRATION =           2.9000

          OUT:                                     OUT:
          ----                                     ----
              UZF ET =     4852710.8004                UZF ET =           1.0526
        UZF RECHARGE =     7879692.3965          UZF RECHARGE =           0.0240

            IN - OUT =    17752394.3392              IN - OUT =           1.8234

          STORAGE:                                 STORAGE:
          --------                                 --------
      STORAGE CHANGE =    17752389.6896        STORAGE CHANGE =           1.8234

 PERCENT DISCREPANCY IS DIFFERENCE BETWEEN IN-OUT MINUS CHANGE IN STORAGE
 DIVIDED BY THE AVERAGE OF IN AND OUT TIMES 100

 PERCENT DISCREPANCY =           0.00     PERCENT DISCREPANCY =           0.00






1
              HEAD IN LAYER   1 AT END OF TIME STEP  15 IN STRESS PERIOD    4
  ---------------------------------------------------------------------------

           1       2       3       4       5       6       7       8       9      10
 ...................................................................................
   1  1032.64 1029.44 6999.00 6999.00 6999.00 6999.00 6999.00 6999.00 6999.00 6999.00
   2  1029.78 1025.49 1023.55 6999.00 6999.00 1022.19 1022.46 1022.62 6999.00 6999.00
   3  6999.00 1022.57 1021.49 1020.56 1020.55 1021.04 1021.71 1021.92 6999.00 6999.00
   4  1020.41 1020.53 1019.85 1018.94 1018.81 1018.99 1019.82 1021.28 1021.20 6999.00
   5  1019.52 1018.86 1017.94 1016.81 1017.10 1018.09 1018.84 1019.73 1020.60 1021.41
   6  1018.61 1017.60 1015.98 1013.39 1014.09 1016.89 1018.35 1019.48 1020.13 1021.36
   7  1017.96 1016.54 1014.72 1011.70 1012.69 1016.09 1018.05 1018.83 1019.86 6999.00
   8  6999.00 1015.56 1013.98 1010.87 1012.03 1015.64 1017.58 1018.67 1020.14 6999.00
   9  6999.00 1014.53 1013.41 1010.68 1011.93 1015.41 1017.30 1018.86 1020.99 6999.00
  10  6999.00 1013.34 1012.98 1011.29 1012.61 1015.89 1017.90 1019.76 1022.19 1023.05
  11  6999.00 1011.25 1012.21 1013.29 1014.85 1017.25 1019.42 1021.85 1024.73 6999.00
  12  1001.25 1006.44 1010.10 1012.96 1015.72 1018.86 1021.70 1025.91 1029.49 6999.00
  13   995.81 1000.74 1006.92 1012.02 1016.27 1021.18 1025.80 1031.10 1034.07 6999.00
  14  6999.00 1005.81 1008.65 1012.88 1017.05 1021.42 1026.56 1032.51 1037.25 6999.00
  15  6999.00 6999.00 1012.22 1014.70 1017.83 1020.63 6999.00 6999.00 6999.00 6999.00

 HEAD WILL BE SAVED ON UNIT   58 AT END OF TIME STEP   15, STRESS PERIOD    4
1
  VOLUMETRIC BUDGET FOR ENTIRE MODEL AT END OF TIME STEP   15, STRESS PERIOD   4
  ------------------------------------------------------------------------------

     CUMULATIVE VOLUMES      L**3       RATES FOR THIS TIME STEP      L**3/T
     ------------------                 ------------------------

           IN:                                      IN:
           ---                                      ---
             STORAGE =   254961072.0000               STORAGE =          30.5934
       CONSTANT HEAD =           0.0000         CONSTANT HEAD =           0.0000
               WELLS =           0.0000                 WELLS =           0.0000
     HEAD DEP BOUNDS =     3091501.7500       HEAD DEP BOUNDS =           0.2947
      STREAM LEAKAGE =   172022976.0000        STREAM LEAKAGE =          18.0995
        UZF RECHARGE =     7879697.5000          UZF RECHARGE =       2.3973E-02
               GW ET =           0.0000                 GW ET =           0.0000
     SURFACE LEAKAGE =           0.0000       SURFACE LEAKAGE =           0.0000

            TOTAL IN =   437955264.0000              TOTAL IN =          49.0116

          OUT:                                     OUT:
          ----                                     ----
             STORAGE =     5876473.0000               STORAGE =           0.4845
       CONSTANT HEAD =           0.0000         CONSTANT HEAD =           0.0000
               WELLS =   341640000.0000                 WELLS =          40.0000
     HEAD DEP BOUNDS =     3019791.2500       HEAD DEP BOUNDS =           0.2967
      STREAM LEAKAGE =    35295408.0000        STREAM LEAKAGE =           2.0742
        UZF RECHARGE =           0.0000          UZF RECHARGE =           0.0000
               GW ET =    52134316.0000                 GW ET =           6.1577
     SURFACE LEAKAGE =           0.0000       SURFACE LEAKAGE =           0.0000

           TOTAL OUT =   437965984.0000             TOTAL OUT =          49.0131

            IN - OUT =      -10720.0000              IN - OUT =      -1.5411E-03

 PERCENT DISCREPANCY =          -0.00     PERCENT DISCREPANCY =          -0.00






         TIME SUMMARY AT END OF TIME STEP   15 IN STRESS PERIOD    4
                    SECONDS     MINUTES      HOURS       DAYS        YEARS
                    -----------------------------------------------------------
   TIME STEP LENGTH 3.14103E+05  5235.0      87.251      3.6354     9.95332E-03
 STRESS PERIOD TIME 2.62800E+06  43800.      730.00      30.417     8.32763E-02
         TOTAL TIME 1.05120E+07 1.75200E+05  2920.0      121.67     0.33311    
1
1
                            STRESS PERIOD NO.    5, LENGTH =   2628000.    
                            -----------------------------------------------

                              NUMBER OF TIME STEPS =    15

                               MULTIPLIER FOR DELT =     1.100

                            INITIAL TIME STEP SIZE =   82713.07    

 WELL NO.  LAYER   ROW   COL   STRESS RATE         
 --------------------------------------------------
      1      1      6      4      -3.000    
      2      1      6      5      -3.000    
      3      1      7      4      -3.000    
      4      1      7      5      -3.000    
      5      1      8      4      -3.000    
      6      1      8      5      -3.000    
      7      1      9      4      -3.000    
      8      1      9      5      -3.000    
      9      1     10      4      -3.000    
     10      1     10      5      -3.000    

     10 WELLS

 REUSING NON-PARAMETER GHB CELLS FROM LAST STRESS PERIOD

      2 GHB CELLS

 REUSING STREAM SEGMENT DATA FROM LAST STRESS PERIOD



            AREAL INFILTRATION RATE
 READING ON UNIT   19 WITH FORMAT: (10F4.0)            

            1           2           3           4           5           6           7           8           9          10
 ........................................................................................................................
   1   5.0000E-09  1.0000E-08   0.000       0.000       0.000       0.000       0.000       0.000       0.000       0.000    
   2   1.0000E-08  5.0000E-09  1.0000E-08   0.000       0.000      4.0000E-08  4.0000E-08  2.5000E-08   0.000       0.000    
   3    0.000      2.5000E-08  5.0000E-09  5.0000E-09  4.0000E-08  4.0000E-08  2.5000E-08  2.5000E-08   0.000       0.000    
   4   4.0000E-08  2.5000E-08  5.0000E-09  5.0000E-09  5.0000E-09  5.0000E-09  5.0000E-09  5.0000E-09  1.0000E-08   0.000    
   5   4.0000E-08  2.5000E-08  5.0000E-09  5.0000E-09  5.0000E-09  5.0000E-09  5.0000E-09  5.0000E-09  5.0000E-09  5.0000E-09
   6   4.0000E-08  2.5000E-08  2.5000E-08  1.0000E-08  1.0000E-08  5.0000E-09  5.0000E-09  5.0000E-09  5.0000E-09  2.5000E-08
   7   4.0000E-08  2.5000E-08  2.5000E-08  1.0000E-08  1.0000E-08  5.0000E-09  5.0000E-09  1.0000E-08  1.0000E-08   0.000    
   8    0.000      2.5000E-08  2.5000E-08  1.0000E-08  1.0000E-08  5.0000E-09  5.0000E-09  1.0000E-08  2.5000E-08   0.000    
   9    0.000      2.5000E-08  2.5000E-08  1.0000E-08  1.0000E-08  5.0000E-09  5.0000E-09  1.0000E-08  2.5000E-08   0.000    
  10    0.000      2.5000E-08  2.5000E-08  1.0000E-08  1.0000E-08  5.0000E-09  5.0000E-09  1.0000E-08  2.5000E-08  4.0000E-08
  11    0.000      5.0000E-09  5.0000E-09  5.0000E-09  5.0000E-09  5.0000E-09  5.0000E-09  1.0000E-08  2.5000E-08   0.000    
  12   5.0000E-09  5.0000E-09  5.0000E-09  5.0000E-09  5.0000E-09  5.0000E-09  5.0000E-09  5.0000E-09  1.0000E-08   0.000    
  13   5.0000E-09  5.0000E-09  1.0000E-08  1.0000E-08  1.0000E-08  1.0000E-08  1.0000E-08  5.0000E-09  5.0000E-09   0.000    
  14    0.000      1.0000E-08  2.5000E-08  2.5000E-08  2.5000E-08  2.5000E-08  2.5000E-08  1.0000E-08  5.0000E-09   0.000    
  15    0.000       0.000      4.0000E-08  4.0000E-08  4.0000E-08  4.0000E-08   0.000       0.000       0.000       0.000    

USING ET RATE FROM PREVIOUS STRESS PERIOD. CURRENT PERIOD IS:       5

 USING ET EXTINCTION DEPTH FROM PREVIOUS STRESS PERIOD. CURRENT PERIOD IS:       5

 USING EXTINCTION WATER CONTENT FROM PREVIOUS STRESS PERIOD. CURRENT PERIOD IS:       5
 
 SOLVING FOR HEAD 
                                                   Max.-Head-Change                         Max.-Flux-Residual
  Residual-Control   Outer-Iter.   Inner-Iter.     Column Row Layer    Maximum-Head-Change  Column Row Layer    Maximum-Flux-Residual          L2-NORM 
          0                 1           2             2   13     1      -0.3832727923E-01       2   13    1        -0.2284515524E+01      0.4817903729E+01
          0                 2           2             2   13     1       0.3704768282E-02       2   13    1         0.2228264351E+00      0.4769566760E+00
          0                 3           2             2   13     1      -0.3214273329E-03       2   13    1        -0.1950816679E-01      0.4246490141E-01
          0                 4           1             2   13     1       0.2473484581E-04       2   13    1         0.1514812567E-02      0.3361985391E-02

    ------------------------------------------------
       NWT REQUIRED            4 OUTER ITERATIONS 
       AND A TOTAL OF          7 INNER ITERATIONS.
    ------------------------------------------------

 NO OUTPUT CONTROL FOR STRESS PERIOD    5   TIME STEP    1
 
 SOLVING FOR HEAD 
                                                   Max.-Head-Change                         Max.-Flux-Residual
  Residual-Control   Outer-Iter.   Inner-Iter.     Column Row Layer    Maximum-Head-Change  Column Row Layer    Maximum-Flux-Residual          L2-NORM 
          0                 1           2             2   13     1      -0.3869754082E-01       2   13    1        -0.2112875620E+01      0.4625961400E+01
          0                 2           2             2   13     1       0.3731456971E-02       2   13    1         0.2055796771E+00      0.4578431010E+00
          0                 3           2             2   13     1      -0.3228162484E-03       2   13    1        -0.1794638720E-01      0.4075178533E-01
          0                 4           1             2   13     1       0.2475832534E-04       2   13    1         0.1388828843E-02      0.3225411948E-02

    ------------------------------------------------
       NWT REQUIRED            4 OUTER ITERATIONS 
       AND A TOTAL OF          7 INNER ITERATIONS.
    ------------------------------------------------

 NO OUTPUT CONTROL FOR STRESS PERIOD    5   TIME STEP    2
 
 SOLVING FOR HEAD 
                                                   Max.-Head-Change                         Max.-Flux-Residual
  Residual-Control   Outer-Iter.   Inner-Iter.     Column Row Layer    Maximum-Head-Change  Column Row Layer    Maximum-Flux-Residual          L2-NORM 
          0                 1           2             2   13     1      -0.3875796612E-01       2   13    1        -0.1939744795E+01      0.4439999420E+01
          0                 2           2             2   13     1       0.3727078846E-02       2   13    1         0.1882147401E+00      0.4393717400E+00
          0                 3           2             2   13     1      -0.3214551162E-03       2   13    1        -0.1638007876E-01      0.3910333343E-01
          0                 4           1             2   13     1       0.2456037346E-04       2   13    1         0.1262758975E-02      0.3094878905E-02

    ------------------------------------------------
       NWT REQUIRED            4 OUTER ITERATIONS 
       AND A TOTAL OF          7 INNER ITERATIONS.
    ------------------------------------------------

 NO OUTPUT CONTROL FOR STRESS PERIOD    5   TIME STEP    3
 
 SOLVING FOR HEAD 
                                                   Max.-Head-Change                         Max.-Flux-Residual
  Residual-Control   Outer-Iter.   Inner-Iter.     Column Row Layer    Maximum-Head-Change  Column Row Layer    Maximum-Flux-Residual          L2-NORM 
          0                 1           2             2   13     1      -0.3848080310E-01       2   13    1        -0.1766562692E+01      0.4262227016E+01
          0                 2           2             2   13     1       0.3689270872E-02       2   13    1         0.1708893890E+00      0.4217826029E+00
          0                 3           2             2   13     1      -0.3171031568E-03       2   13    1        -0.1482085918E-01      0.3754008094E-01
          0                 4           1             2   13     1       0.2414399783E-04       2   13    1         0.1138579548E-02      0.2971392878E-02

    ------------------------------------------------
       NWT REQUIRED            4 OUTER ITERATIONS 
       AND A TOTAL OF          7 INNER ITERATIONS.
    ------------------------------------------------

 NO OUTPUT CONTROL FOR STRESS PERIOD    5   TIME STEP    4
 
 SOLVING FOR HEAD 
                                                   Max.-Head-Change                         Max.-Flux-Residual
  Residual-Control   Outer-Iter.   Inner-Iter.     Column Row Layer    Maximum-Head-Change  Column Row Layer    Maximum-Flux-Residual          L2-NORM 
          0                 1           2             2   13     1      -0.3784550039E-01       2   13    1        -0.1594880683E+01      0.4094713408E+01
          0                 2           2             2   13     1       0.3616449766E-02       2   13    1         0.1537701297E+00      0.4052831770E+00
          0                 3           2             2   13     1      -0.3096997159E-03       2   13    1        -0.1328659684E-01      0.3608143220E-01
          0                 4           1             2   13     1       0.2348009944E-04       2   13    1         0.1016328894E-02      0.2857099465E-02

    ------------------------------------------------
       NWT REQUIRED            4 OUTER ITERATIONS 
       AND A TOTAL OF          7 INNER ITERATIONS.
    ------------------------------------------------

 OUTPUT CONTROL FOR STRESS PERIOD    5   TIME STEP    5
    PRINT BUDGET
    SAVE BUDGET

            WELLS   PERIOD    5   STEP   5
 WELL      1   LAYER   1   ROW     6   COL     4   RATE    -3.00000    
 WELL      2   LAYER   1   ROW     6   COL     5   RATE    -3.00000    
 WELL      3   LAYER   1   ROW     7   COL     4   RATE    -3.00000    
 WELL      4   LAYER   1   ROW     7   COL     5   RATE    -3.00000    
 WELL      5   LAYER   1   ROW     8   COL     4   RATE    -3.00000    
 WELL      6   LAYER   1   ROW     8   COL     5   RATE    -3.00000    
 WELL      7   LAYER   1   ROW     9   COL     4   RATE    -3.00000    
 WELL      8   LAYER   1   ROW     9   COL     5   RATE    -3.00000    
 WELL      9   LAYER   1   ROW    10   COL     4   RATE    -3.00000    
 WELL     10   LAYER   1   ROW    10   COL     5   RATE    -3.00000    

  HEAD DEP BOUNDS   PERIOD    5   STEP     5
 BOUNDARY      1   LAYER   1   ROW    13   COL     1   RATE   -0.292386    
 BOUNDARY      2   LAYER   1   ROW    14   COL     9   RATE    0.294717    



 STREAM LISTING     PERIOD      5   STEP        5

 LAYER ROW COL. STREAM  RCH.  FLOW INTO     FLOW TO   FLOW OUT OF   OVRLND.     DIRECT     STREAM       STREAM     STREAM     STREAM   STREAMBED  STREAMBED
                SEG.NO.  NO.  STRM. RCH.    AQUIFER    STRM. RCH.    RUNOFF     PRECIP       ET          HEAD       DEPTH      WIDTH   CONDCTNC.   GRADIENT

   1    1    1     1     1    2.5000E+01  2.4590E-01   2.5081E+01  3.270E-01  0.000E+00  0.000E+00  1.09423E+03  1.181E+00  1.307E+01  5.882E-02  1.394E+00
   1    2    2     1     2    2.5081E+01  3.8325E-01   2.5207E+01  5.087E-01  0.000E+00  0.000E+00  1.08924E+03  1.182E+00  1.309E+01  9.164E-02  1.394E+00
   1    3    3     1     3    2.5207E+01  3.2921E-01   2.5313E+01  4.360E-01  0.000E+00  0.000E+00  1.08360E+03  1.184E+00  1.311E+01  7.868E-02  1.395E+00
   1    3    4     1     4    2.5313E+01  3.0510E-01   2.5412E+01  4.033E-01  0.000E+00  0.000E+00  1.07859E+03  1.186E+00  1.313E+01  7.289E-02  1.395E+00
   1    4    5     2     1    1.5412E+01  3.0445E-01   1.5401E+01  2.943E-01  0.000E+00  0.000E+00  1.07284E+03  9.032E-01  1.200E+01  7.800E-02  1.301E+00
   1    5    6     2     2    1.5401E+01  2.3417E-01   1.5394E+01  2.264E-01  0.000E+00  0.000E+00  1.06741E+03  9.028E-01  1.200E+01  6.000E-02  1.301E+00
   1    6    6     2     3    1.5394E+01  2.3415E-01   1.5386E+01  2.264E-01  0.000E+00  0.000E+00  1.06270E+03  9.026E-01  1.200E+01  6.000E-02  1.301E+00
   1    7    6     2     4    1.5386E+01  2.3414E-01   1.5378E+01  2.264E-01  0.000E+00  0.000E+00  1.05798E+03  9.023E-01  1.200E+01  6.000E-02  1.301E+00
   1    8    6     2     5    1.5378E+01  2.3412E-01   1.5370E+01  2.264E-01  0.000E+00  0.000E+00  1.05326E+03  9.020E-01  1.200E+01  6.000E-02  1.301E+00
   1    3    5     3     1    1.0000E+01  2.8252E-01   1.0831E+01  1.114E+00  0.000E+00  0.000E+00  1.07555E+03  1.909E+00  9.636E+00  7.227E-02  1.955E+00
   1    3    6     3     2    1.0831E+01  2.4905E-01   1.1696E+01  1.114E+00  0.000E+00  0.000E+00  1.07264E+03  1.727E+00  8.909E+00  6.682E-02  1.864E+00
   1    3    7     3     3    1.1696E+01  1.9718E-01   1.2501E+01  1.002E+00  0.000E+00  0.000E+00  1.06987E+03  1.555E+00  8.218E+00  5.547E-02  1.777E+00
   1    4    8     3     4    1.2501E+01  2.2567E-01   1.3611E+01  1.336E+00  0.000E+00  0.000E+00  1.06682E+03  1.364E+00  7.455E+00  6.709E-02  1.682E+00
   1    5    8     3     5    1.3611E+01  1.5790E-01   1.4567E+01  1.114E+00  0.000E+00  0.000E+00  1.06362E+03  1.164E+00  6.655E+00  4.991E-02  1.582E+00
   1    6    8     3     6    1.4567E+01  5.5980E-02   1.4957E+01  4.455E-01  0.000E+00  0.000E+00  1.06158E+03  1.036E+00  6.145E+00  1.844E-02  1.518E+00
   1    5   10     4     1    1.0000E+01  9.1028E-02   1.0136E+01  2.273E-01  0.000E+00  0.000E+00  1.07837E+03  6.411E-01  1.000E+01  2.500E-02  1.214E+00
   1    5    9     4     2    1.0136E+01  1.8244E-01   1.0408E+01  4.545E-01  0.000E+00  0.000E+00  1.07156E+03  6.489E-01  1.000E+01  5.000E-02  1.216E+00
   1    6    8     4     3    1.0408E+01  1.2802E-01   1.0599E+01  3.182E-01  0.000E+00  0.000E+00  1.06384E+03  6.576E-01  1.000E+01  3.500E-02  1.219E+00
   1    6    8     5     1    2.5555E+01  4.1771E-01   2.5531E+01  3.933E-01  0.000E+00  0.000E+00  1.05893E+03  9.325E-01  2.656E+01  1.062E-01  1.311E+00
   1    7    7     5     2    2.5531E+01  5.2176E-01   2.5501E+01  4.917E-01  0.000E+00  0.000E+00  1.05443E+03  9.322E-01  2.654E+01  1.327E-01  1.311E+00
   1    8    7     5     3    2.5501E+01  3.6499E-01   2.5480E+01  3.442E-01  0.000E+00  0.000E+00  1.05018E+03  9.319E-01  2.652E+01  9.283E-02  1.311E+00
   1    8    6     5     4    2.5480E+01  2.6058E-01   2.5465E+01  2.458E-01  0.000E+00  0.000E+00  1.04718E+03  9.316E-01  2.651E+01  6.628E-02  1.311E+00
   1    9    6     6     1    4.0836E+01  2.7871E-01   4.1341E+01  7.841E-01  0.000E+00  0.000E+00  1.04437E+03  1.645E+00  1.200E+01  6.000E-02  1.548E+00
   1   10    7     6     2    4.1341E+01  2.7943E-01   4.1846E+01  7.841E-01  0.000E+00  0.000E+00  1.03984E+03  1.657E+00  1.200E+01  6.000E-02  1.552E+00
   1   11    7     6     3    4.1846E+01  2.8016E-01   4.2350E+01  7.841E-01  0.000E+00  0.000E+00  1.03531E+03  1.669E+00  1.200E+01  6.000E-02  1.556E+00
   1   12    7     6     4    4.2350E+01  2.8087E-01   4.2853E+01  7.841E-01  0.000E+00  0.000E+00  1.03077E+03  1.681E+00  1.200E+01  6.000E-02  1.560E+00
   1   13    7     6     5    4.2853E+01  4.3392E-02   4.3123E+01  3.136E-01  0.000E+00  0.000E+00  1.02760E+03  1.690E+00  1.200E+01  2.400E-02  6.027E-01
   1   14    9     7     1    1.5000E+02  1.4688E+00   1.4927E+02  7.339E-01  0.000E+00  0.000E+00  1.03987E+03  2.289E+00  5.530E+01  5.594E-01  8.752E-01
   1   13    8     7     2    1.4927E+02  2.2649E+00   1.4781E+02  8.073E-01  0.000E+00  0.000E+00  1.03478E+03  2.283E+00  5.528E+01  6.150E-01  1.228E+00
   1   13    7     7     3    1.4781E+02  2.1810E+00   1.4636E+02  7.339E-01  0.000E+00  0.000E+00  1.02970E+03  2.276E+00  5.524E+01  5.587E-01  1.301E+00
   1   13    6     8     1    1.8948E+02  1.7353E+00   1.9173E+02  3.978E+00  0.000E+00  0.000E+00  1.02496E+03  3.082E+00  4.468E+01  4.553E-01  1.270E+00
   1   13    5     8     2    1.9173E+02  1.1386E+00   1.9456E+02  3.978E+00  0.000E+00  0.000E+00  1.01872E+03  3.097E+00  4.491E+01  4.576E-01  8.294E-01
   1   13    4     8     3    1.9456E+02  2.3316E-01   1.9831E+02  3.978E+00  0.000E+00  0.000E+00  1.01249E+03  3.117E+00  4.519E+01  4.605E-01  1.688E-01
   1   13    3     8     4    1.9831E+02 -2.2897E+00   2.0458E+02  3.978E+00  0.000E+00  0.000E+00  1.00627E+03  3.146E+00  4.562E+01  4.649E+00 -1.642E-01
   1   13    2     8     5    2.0458E+02 -2.4044E+00   2.1096E+02  3.978E+00  0.000E+00  0.000E+00  1.00006E+03  3.183E+00  4.615E+01  4.703E+00 -1.704E-01
   1   13    1     8     6    2.1096E+02 -1.7278E+00   2.1507E+02  2.387E+00  0.000E+00  0.000E+00  9.95088E+02  3.213E+00  4.659E+01  2.848E+00 -2.022E-01



 UBDSV3 SAVING "     NETRECHARGE" ON UNIT 100 AT TIME STEP  5, STRESS PERIOD   5
 UBDSV3 SAVING "    NETDISCHARGE" ON UNIT 101 AT TIME STEP  5, STRESS PERIOD   5
 UBDSV3 SAVING "           GW ET" ON UNIT  61 AT TIME STEP  5, STRESS PERIOD   5
 UBDSV3 SAVING "    UZF RECHARGE" ON UNIT  61 AT TIME STEP  5, STRESS PERIOD   5
 UBDSV3 SAVING " SURFACE LEAKAGE" ON UNIT  61 AT TIME STEP  5, STRESS PERIOD   5
 UBDSV3 SAVING "       HORT+DUNN" ON UNIT  61 AT TIME STEP  5, STRESS PERIOD   5
 UBDSV3 SAVING "  STORAGE CHANGE" ON UNIT  61 AT TIME STEP  5, STRESS PERIOD   5


UNSATURATED ZONE PACKAGE VOLUMETRIC BUDGET FOR  TIME STEP     5 STRESS PERIOD    5
  ------------------------------------------------------------------------------



     CUMULATIVE VOLUMES      L**3       RATES FOR THIS TIME STEP      L**3/T
     ------------------                 ------------------------

           IN:                                      IN:
           ---                                      ---
        INFILTRATION =    31949215.0957          INFILTRATION =           2.9000

          OUT:                                     OUT:
          ----                                     ----
              UZF ET =     5400592.9496                UZF ET =           1.1004
        UZF RECHARGE =     7879692.3965          UZF RECHARGE =       0.0000E+00

            IN - OUT =    18668929.7496              IN - OUT =           1.7996

          STORAGE:                                 STORAGE:
          --------                                 --------
      STORAGE CHANGE =    18668925.0930        STORAGE CHANGE =           1.7996

 PERCENT DISCREPANCY IS DIFFERENCE BETWEEN IN-OUT MINUS CHANGE IN STORAGE
 DIVIDED BY THE AVERAGE OF IN AND OUT TIMES 100

 PERCENT DISCREPANCY =           0.00     PERCENT DISCREPANCY =           0.00






1
  VOLUMETRIC BUDGET FOR ENTIRE MODEL AT END OF TIME STEP    5, STRESS PERIOD   5
  ------------------------------------------------------------------------------

     CUMULATIVE VOLUMES      L**3       RATES FOR THIS TIME STEP      L**3/T
     ------------------                 ------------------------

           IN:                                      IN:
           ---                                      ---
             STORAGE =   268813312.0000               STORAGE =          26.7480
       CONSTANT HEAD =           0.0000         CONSTANT HEAD =           0.0000
               WELLS =           0.0000                 WELLS =           0.0000
     HEAD DEP BOUNDS =     3240313.5000       HEAD DEP BOUNDS =           0.2947
      STREAM LEAKAGE =   180003152.0000        STREAM LEAKAGE =          15.8237
        UZF RECHARGE =     7879697.5000          UZF RECHARGE =           0.0000
               GW ET =           0.0000                 GW ET =           0.0000
     SURFACE LEAKAGE =           0.0000       SURFACE LEAKAGE =           0.0000

            TOTAL IN =   459936480.0000              TOTAL IN =          42.8664

          OUT:                                     OUT:
          ----                                     ----
             STORAGE =     5876607.5000               STORAGE =           0.0000
       CONSTANT HEAD =           0.0000         CONSTANT HEAD =           0.0000
               WELLS =   356789152.0000                 WELLS =          30.0000
     HEAD DEP BOUNDS =     3168265.2500       HEAD DEP BOUNDS =           0.2924
      STREAM LEAKAGE =    38871544.0000        STREAM LEAKAGE =           6.4219
        UZF RECHARGE =           0.0000          UZF RECHARGE =           0.0000
               GW ET =    55242328.0000                 GW ET =           6.1535
     SURFACE LEAKAGE =           0.0000       SURFACE LEAKAGE =           0.0000

           TOTAL OUT =   459947904.0000             TOTAL OUT =          42.8677

            IN - OUT =      -11424.0000              IN - OUT =      -1.3504E-03

 PERCENT DISCREPANCY =          -0.00     PERCENT DISCREPANCY =          -0.00






         TIME SUMMARY AT END OF TIME STEP    5 IN STRESS PERIOD    5
                    SECONDS     MINUTES      HOURS       DAYS        YEARS
                    -----------------------------------------------------------
   TIME STEP LENGTH 1.21100E+05  2018.3      33.639      1.4016     3.83743E-03
 STRESS PERIOD TIME 5.04972E+05  8416.2      140.27      5.8446     1.60016E-02
         TOTAL TIME 1.10170E+07 1.83616E+05  3060.3      127.51     0.34911    
1
 
 SOLVING FOR HEAD 
                                                   Max.-Head-Change                         Max.-Flux-Residual
  Residual-Control   Outer-Iter.   Inner-Iter.     Column Row Layer    Maximum-Head-Change  Column Row Layer    Maximum-Flux-Residual          L2-NORM 
          0                 1           2             2   13     1      -0.3684107932E-01       2   13    1        -0.1426335666E+01      0.3939292839E+01
          0                 2           2             2   13     1       0.3507690229E-02       2   13    1         0.1370152398E+00      0.3900497785E+00
          0                 3           2             2   13     1      -0.2991586181E-03       2   13    1        -0.1178998811E-01      0.3474202181E-01
          0                 4           1             2   13     1       0.2258616888E-04       2   13    1         0.8980363718E-03      0.2752965041E-02

    ------------------------------------------------
       NWT REQUIRED            4 OUTER ITERATIONS 
       AND A TOTAL OF          7 INNER ITERATIONS.
    ------------------------------------------------

 NO OUTPUT CONTROL FOR STRESS PERIOD    5   TIME STEP    6
 
 SOLVING FOR HEAD 
                                                   Max.-Head-Change                         Max.-Flux-Residual
  Residual-Control   Outer-Iter.   Inner-Iter.     Column Row Layer    Maximum-Head-Change  Column Row Layer    Maximum-Flux-Residual          L2-NORM 
          0                 1           2             2   13     1      -0.3546880594E-01       2   13    1        -0.1262626952E+01      0.3797409412E+01
          0                 2           2             2   13     1       0.3363563342E-02       2   13    1         0.1207994326E+00      0.3762186192E+00
          0                 3           2             2   13     1      -0.2855248458E-03       2   13    1        -0.1034542296E-01      0.3353208894E-01
          0                 4           1             3    8     1       0.2213534937E-04       2   13    1         0.7828150847E-03      0.2658530671E-02

    ------------------------------------------------
       NWT REQUIRED            4 OUTER ITERATIONS 
       AND A TOTAL OF          7 INNER ITERATIONS.
    ------------------------------------------------

 NO OUTPUT CONTROL FOR STRESS PERIOD    5   TIME STEP    7
 
 SOLVING FOR HEAD 
                                                   Max.-Head-Change                         Max.-Flux-Residual
  Residual-Control   Outer-Iter.   Inner-Iter.     Column Row Layer    Maximum-Head-Change  Column Row Layer    Maximum-Flux-Residual          L2-NORM 
          0                 1           2             3    8     1      -0.3443522526E-01       2   13    1        -0.1105433343E+01      0.3670040945E+01
          0                 2           2             3    8     1       0.3412188233E-02       2   13    1         0.1052827162E+00      0.3638719320E+00
          0                 3           2             3    8     1      -0.3043080458E-03       2   13    1        -0.8970119534E-02      0.3245946299E-01
          0                 4           1             3    8     1       0.2415389495E-04       6    8    1         0.6831619157E-03      0.2575951266E-02

    ------------------------------------------------
       NWT REQUIRED            4 OUTER ITERATIONS 
       AND A TOTAL OF          7 INNER ITERATIONS.
    ------------------------------------------------

 NO OUTPUT CONTROL FOR STRESS PERIOD    5   TIME STEP    8
 
 SOLVING FOR HEAD 
                                                   Max.-Head-Change                         Max.-Flux-Residual
  Residual-Control   Outer-Iter.   Inner-Iter.     Column Row Layer    Maximum-Head-Change  Column Row Layer    Maximum-Flux-Residual          L2-NORM 
          0                 1           2             3    8     1      -0.3754378634E-01       2   13    1        -0.9564348564E+00      0.3557655258E+01
          0                 2           2             3    8     1       0.3720210215E-02       6    8    1         0.9239159448E-01      0.3530415733E+00
          0                 3           2             3    8     1      -0.3317783222E-03       6    8    1        -0.8315266465E-02      0.3152480357E-01
          0                 4           1             3    8     1       0.2633429746E-04       6    8    1         0.6660528445E-03      0.2504610709E-02

    ------------------------------------------------
       NWT REQUIRED            4 OUTER ITERATIONS 
       AND A TOTAL OF          7 INNER ITERATIONS.
    ------------------------------------------------

 NO OUTPUT CONTROL FOR STRESS PERIOD    5   TIME STEP    9
 
 SOLVING FOR HEAD 
                                                   Max.-Head-Change                         Max.-Flux-Residual
  Residual-Control   Outer-Iter.   Inner-Iter.     Column Row Layer    Maximum-Head-Change  Column Row Layer    Maximum-Flux-Residual          L2-NORM 
          0                 1           2             3    8     1      -0.4089521531E-01       6    8    1        -0.8997632801E+00      0.3459996415E+01
          0                 2           2             3    8     1       0.4052295955E-02       6    8    1         0.8997389433E-01      0.3436842538E+00
          0                 3           2             3    8     1      -0.3613946886E-03       6    8    1        -0.8097675385E-02      0.3072163612E-01
          0                 4           1             3    8     1       0.2868504194E-04       6    8    1         0.6486237764E-03      0.2443833186E-02

    ------------------------------------------------
       NWT REQUIRED            4 OUTER ITERATIONS 
       AND A TOTAL OF          7 INNER ITERATIONS.
    ------------------------------------------------

 OUTPUT CONTROL FOR STRESS PERIOD    5   TIME STEP   10
    PRINT BUDGET
    SAVE BUDGET

            WELLS   PERIOD    5   STEP  10
 WELL      1   LAYER   1   ROW     6   COL     4   RATE    -3.00000    
 WELL      2   LAYER   1   ROW     6   COL     5   RATE    -3.00000    
 WELL      3   LAYER   1   ROW     7   COL     4   RATE    -3.00000    
 WELL      4   LAYER   1   ROW     7   COL     5   RATE    -3.00000    
 WELL      5   LAYER   1   ROW     8   COL     4   RATE    -3.00000    
 WELL      6   LAYER   1   ROW     8   COL     5   RATE    -3.00000    
 WELL      7   LAYER   1   ROW     9   COL     4   RATE    -3.00000    
 WELL      8   LAYER   1   ROW     9   COL     5   RATE    -3.00000    
 WELL      9   LAYER   1   ROW    10   COL     4   RATE    -3.00000    
 WELL     10   LAYER   1   ROW    10   COL     5   RATE    -3.00000    

  HEAD DEP BOUNDS   PERIOD    5   STEP    10
 BOUNDARY      1   LAYER   1   ROW    13   COL     1   RATE   -0.287468    
 BOUNDARY      2   LAYER   1   ROW    14   COL     9   RATE    0.294810    



 STREAM LISTING     PERIOD      5   STEP       10

 LAYER ROW COL. STREAM  RCH.  FLOW INTO     FLOW TO   FLOW OUT OF   OVRLND.     DIRECT     STREAM       STREAM     STREAM     STREAM   STREAMBED  STREAMBED
                SEG.NO.  NO.  STRM. RCH.    AQUIFER    STRM. RCH.    RUNOFF     PRECIP       ET          HEAD       DEPTH      WIDTH   CONDCTNC.   GRADIENT

   1    1    1     1     1    2.5000E+01  2.4590E-01   2.5081E+01  3.270E-01  0.000E+00  0.000E+00  1.09423E+03  1.181E+00  1.307E+01  5.882E-02  1.394E+00
   1    2    2     1     2    2.5081E+01  3.8325E-01   2.5207E+01  5.087E-01  0.000E+00  0.000E+00  1.08924E+03  1.182E+00  1.309E+01  9.164E-02  1.394E+00
   1    3    3     1     3    2.5207E+01  3.2921E-01   2.5313E+01  4.360E-01  0.000E+00  0.000E+00  1.08360E+03  1.184E+00  1.311E+01  7.868E-02  1.395E+00
   1    3    4     1     4    2.5313E+01  3.0510E-01   2.5412E+01  4.033E-01  0.000E+00  0.000E+00  1.07859E+03  1.186E+00  1.313E+01  7.289E-02  1.395E+00
   1    4    5     2     1    1.5412E+01  3.0445E-01   1.5401E+01  2.943E-01  0.000E+00  0.000E+00  1.07284E+03  9.032E-01  1.200E+01  7.800E-02  1.301E+00
   1    5    6     2     2    1.5401E+01  2.3417E-01   1.5394E+01  2.264E-01  0.000E+00  0.000E+00  1.06741E+03  9.028E-01  1.200E+01  6.000E-02  1.301E+00
   1    6    6     2     3    1.5394E+01  2.3415E-01   1.5386E+01  2.264E-01  0.000E+00  0.000E+00  1.06270E+03  9.026E-01  1.200E+01  6.000E-02  1.301E+00
   1    7    6     2     4    1.5386E+01  2.3414E-01   1.5378E+01  2.264E-01  0.000E+00  0.000E+00  1.05798E+03  9.023E-01  1.200E+01  6.000E-02  1.301E+00
   1    8    6     2     5    1.5378E+01  2.3412E-01   1.5370E+01  2.264E-01  0.000E+00  0.000E+00  1.05326E+03  9.020E-01  1.200E+01  6.000E-02  1.301E+00
   1    3    5     3     1    1.0000E+01  2.8252E-01   1.0831E+01  1.114E+00  0.000E+00  0.000E+00  1.07555E+03  1.909E+00  9.636E+00  7.227E-02  1.955E+00
   1    3    6     3     2    1.0831E+01  2.4905E-01   1.1696E+01  1.114E+00  0.000E+00  0.000E+00  1.07264E+03  1.727E+00  8.909E+00  6.682E-02  1.864E+00
   1    3    7     3     3    1.1696E+01  1.9718E-01   1.2501E+01  1.002E+00  0.000E+00  0.000E+00  1.06987E+03  1.555E+00  8.218E+00  5.547E-02  1.777E+00
   1    4    8     3     4    1.2501E+01  2.2567E-01   1.3611E+01  1.336E+00  0.000E+00  0.000E+00  1.06682E+03  1.364E+00  7.455E+00  6.709E-02  1.682E+00
   1    5    8     3     5    1.3611E+01  1.5790E-01   1.4567E+01  1.114E+00  0.000E+00  0.000E+00  1.06362E+03  1.164E+00  6.655E+00  4.991E-02  1.582E+00
   1    6    8     3     6    1.4567E+01  5.5980E-02   1.4957E+01  4.455E-01  0.000E+00  0.000E+00  1.06158E+03  1.036E+00  6.145E+00  1.844E-02  1.518E+00
   1    5   10     4     1    1.0000E+01  9.1028E-02   1.0136E+01  2.273E-01  0.000E+00  0.000E+00  1.07837E+03  6.411E-01  1.000E+01  2.500E-02  1.214E+00
   1    5    9     4     2    1.0136E+01  1.8244E-01   1.0408E+01  4.545E-01  0.000E+00  0.000E+00  1.07156E+03  6.489E-01  1.000E+01  5.000E-02  1.216E+00
   1    6    8     4     3    1.0408E+01  1.2802E-01   1.0599E+01  3.182E-01  0.000E+00  0.000E+00  1.06384E+03  6.576E-01  1.000E+01  3.500E-02  1.219E+00
   1    6    8     5     1    2.5555E+01  4.1771E-01   2.5531E+01  3.933E-01  0.000E+00  0.000E+00  1.05893E+03  9.325E-01  2.656E+01  1.062E-01  1.311E+00
   1    7    7     5     2    2.5531E+01  5.2176E-01   2.5501E+01  4.917E-01  0.000E+00  0.000E+00  1.05443E+03  9.322E-01  2.654E+01  1.327E-01  1.311E+00
   1    8    7     5     3    2.5501E+01  3.6499E-01   2.5480E+01  3.442E-01  0.000E+00  0.000E+00  1.05018E+03  9.319E-01  2.652E+01  9.283E-02  1.311E+00
   1    8    6     5     4    2.5480E+01  2.6058E-01   2.5465E+01  2.458E-01  0.000E+00  0.000E+00  1.04718E+03  9.316E-01  2.651E+01  6.628E-02  1.311E+00
   1    9    6     6     1    4.0836E+01  2.7871E-01   4.1341E+01  7.841E-01  0.000E+00  0.000E+00  1.04437E+03  1.645E+00  1.200E+01  6.000E-02  1.548E+00
   1   10    7     6     2    4.1341E+01  2.7943E-01   4.1846E+01  7.841E-01  0.000E+00  0.000E+00  1.03984E+03  1.657E+00  1.200E+01  6.000E-02  1.552E+00
   1   11    7     6     3    4.1846E+01  2.8016E-01   4.2350E+01  7.841E-01  0.000E+00  0.000E+00  1.03531E+03  1.669E+00  1.200E+01  6.000E-02  1.556E+00
   1   12    7     6     4    4.2350E+01  2.8087E-01   4.2853E+01  7.841E-01  0.000E+00  0.000E+00  1.03077E+03  1.681E+00  1.200E+01  6.000E-02  1.560E+00
   1   13    7     6     5    4.2853E+01  4.3653E-02   4.3123E+01  3.136E-01  0.000E+00  0.000E+00  1.02760E+03  1.690E+00  1.200E+01  2.400E-02  6.063E-01
   1   14    9     7     1    1.5000E+02  1.4701E+00   1.4926E+02  7.339E-01  0.000E+00  0.000E+00  1.03987E+03  2.289E+00  5.530E+01  5.594E-01  8.760E-01
   1   13    8     7     2    1.4926E+02  2.2671E+00   1.4780E+02  8.073E-01  0.000E+00  0.000E+00  1.03478E+03  2.283E+00  5.528E+01  6.150E-01  1.229E+00
   1   13    7     7     3    1.4780E+02  2.1871E+00   1.4635E+02  7.339E-01  0.000E+00  0.000E+00  1.02970E+03  2.276E+00  5.524E+01  5.587E-01  1.305E+00
   1   13    6     8     1    1.8947E+02  1.7558E+00   1.9170E+02  3.978E+00  0.000E+00  0.000E+00  1.02496E+03  3.081E+00  4.468E+01  4.553E-01  1.285E+00
   1   13    5     8     2    1.9170E+02  1.1633E+00   1.9451E+02  3.978E+00  0.000E+00  0.000E+00  1.01872E+03  3.097E+00  4.490E+01  4.576E-01  8.474E-01
   1   13    4     8     3    1.9451E+02  2.5917E-01   1.9823E+02  3.978E+00  0.000E+00  0.000E+00  1.01249E+03  3.116E+00  4.519E+01  4.605E-01  1.876E-01
   1   13    3     8     4    1.9823E+02 -1.7048E+00   2.0391E+02  3.978E+00  0.000E+00  0.000E+00  1.00627E+03  3.144E+00  4.559E+01  4.646E+00 -1.223E-01
   1   13    2     8     5    2.0391E+02 -1.7111E+00   2.0960E+02  3.978E+00  0.000E+00  0.000E+00  1.00005E+03  3.177E+00  4.607E+01  4.694E+00 -1.215E-01
   1   13    1     8     6    2.0960E+02 -1.3801E+00   2.1337E+02  2.387E+00  0.000E+00  0.000E+00  9.95079E+02  3.204E+00  4.646E+01  2.841E+00 -1.619E-01



 UBDSV3 SAVING "     NETRECHARGE" ON UNIT 100 AT TIME STEP 10, STRESS PERIOD   5
 UBDSV3 SAVING "    NETDISCHARGE" ON UNIT 101 AT TIME STEP 10, STRESS PERIOD   5
 UBDSV3 SAVING "           GW ET" ON UNIT  61 AT TIME STEP 10, STRESS PERIOD   5
 UBDSV3 SAVING "    UZF RECHARGE" ON UNIT  61 AT TIME STEP 10, STRESS PERIOD   5
 UBDSV3 SAVING " SURFACE LEAKAGE" ON UNIT  61 AT TIME STEP 10, STRESS PERIOD   5
 UBDSV3 SAVING "       HORT+DUNN" ON UNIT  61 AT TIME STEP 10, STRESS PERIOD   5
 UBDSV3 SAVING "  STORAGE CHANGE" ON UNIT  61 AT TIME STEP 10, STRESS PERIOD   5


UNSATURATED ZONE PACKAGE VOLUMETRIC BUDGET FOR  TIME STEP    10 STRESS PERIOD    5
  ------------------------------------------------------------------------------



     CUMULATIVE VOLUMES      L**3       RATES FOR THIS TIME STEP      L**3/T
     ------------------                 ------------------------

           IN:                                      IN:
           ---                                      ---
        INFILTRATION =    34307674.3633          INFILTRATION =           2.9000

          OUT:                                     OUT:
          ----                                     ----
              UZF ET =     6322250.9567                UZF ET =           1.1521
        UZF RECHARGE =     7879692.3965          UZF RECHARGE =       0.0000E+00

            IN - OUT =    20105731.0101              IN - OUT =           1.7479

          STORAGE:                                 STORAGE:
          --------                                 --------
      STORAGE CHANGE =    20105726.3291        STORAGE CHANGE =           1.7479

 PERCENT DISCREPANCY IS DIFFERENCE BETWEEN IN-OUT MINUS CHANGE IN STORAGE
 DIVIDED BY THE AVERAGE OF IN AND OUT TIMES 100

 PERCENT DISCREPANCY =           0.00     PERCENT DISCREPANCY =           0.00






1
  VOLUMETRIC BUDGET FOR ENTIRE MODEL AT END OF TIME STEP   10, STRESS PERIOD   5
  ------------------------------------------------------------------------------

     CUMULATIVE VOLUMES      L**3       RATES FOR THIS TIME STEP      L**3/T
     ------------------                 ------------------------

           IN:                                      IN:
           ---                                      ---
             STORAGE =   289654080.0000               STORAGE =          25.0317
       CONSTANT HEAD =           0.0000         CONSTANT HEAD =           0.0000
               WELLS =           0.0000                 WELLS =           0.0000
     HEAD DEP BOUNDS =     3480041.5000       HEAD DEP BOUNDS =           0.2948
      STREAM LEAKAGE =   192911856.0000        STREAM LEAKAGE =          15.9047
        UZF RECHARGE =     7879697.5000          UZF RECHARGE =           0.0000
               GW ET =           0.0000                 GW ET =           0.0000
     SURFACE LEAKAGE =           0.0000       SURFACE LEAKAGE =           0.0000

            TOTAL IN =   493925664.0000              TOTAL IN =          41.2312

          OUT:                                     OUT:
          ----                                     ----
             STORAGE =     5876607.5000               STORAGE =           0.0000
       CONSTANT HEAD =           0.0000         CONSTANT HEAD =           0.0000
               WELLS =   381187008.0000                 WELLS =          30.0000
     HEAD DEP BOUNDS =     3403509.5000       HEAD DEP BOUNDS =           0.2875
      STREAM LEAKAGE =    43226692.0000        STREAM LEAKAGE =           4.7960
        UZF RECHARGE =           0.0000          UZF RECHARGE =           0.0000
               GW ET =    60244368.0000                 GW ET =           6.1489
     SURFACE LEAKAGE =           0.0000       SURFACE LEAKAGE =           0.0000

           TOTAL OUT =   493938176.0000             TOTAL OUT =          41.2324

            IN - OUT =      -12512.0000              IN - OUT =      -1.2627E-03

 PERCENT DISCREPANCY =          -0.00     PERCENT DISCREPANCY =          -0.00






         TIME SUMMARY AT END OF TIME STEP   10 IN STRESS PERIOD    5
                    SECONDS     MINUTES      HOURS       DAYS        YEARS
                    -----------------------------------------------------------
   TIME STEP LENGTH 1.95033E+05  3250.6      54.176      2.2573     6.18023E-03
 STRESS PERIOD TIME 1.31823E+06  21971.      366.18      15.257     4.17723E-02
         TOTAL TIME 1.18302E+07 1.97171E+05  3286.2      136.92     0.37488    
1
 
 SOLVING FOR HEAD 
                                                   Max.-Head-Change                         Max.-Flux-Residual
  Residual-Control   Outer-Iter.   Inner-Iter.     Column Row Layer    Maximum-Head-Change  Column Row Layer    Maximum-Flux-Residual          L2-NORM 
          0                 1           2             3    8     1      -0.4450126859E-01       6    8    1        -0.8752703277E+00      0.3376466252E+01
          0                 2           2             3    8     1       0.4409609825E-02       6    8    1         0.8752439925E-01      0.3357213615E+00
          0                 3           2             3    8     1      -0.3932609933E-03       6    8    1        -0.7877222766E-02      0.3004139743E-01
          0                 4           1             3    8     1       0.3121437102E-04       6    8    1         0.6309655039E-03      0.2392246280E-02

    ------------------------------------------------
       NWT REQUIRED            4 OUTER ITERATIONS 
       AND A TOTAL OF          7 INNER ITERATIONS.
    ------------------------------------------------

 NO OUTPUT CONTROL FOR STRESS PERIOD    5   TIME STEP   11
 
 SOLVING FOR HEAD 
                                                   Max.-Head-Change                         Max.-Flux-Residual
  Residual-Control   Outer-Iter.   Inner-Iter.     Column Row Layer    Maximum-Head-Change  Column Row Layer    Maximum-Flux-Residual          L2-NORM 
          0                 1           2             3    8     1      -0.4837296737E-01       6    8    1        -0.8506040680E+00      0.3305616118E+01
          0                 2           2             3    8     1       0.4793243223E-02       6    8    1         0.8505757581E-01      0.3289974611E+00
          0                 3           2             3    8     1      -0.4274745759E-03       6    8    1        -0.7655210571E-02      0.2947065396E-01
          0                 4           1             3    8     1       0.3393001059E-04       6    8    1         0.6131823059E-03      0.2349747309E-02

    ------------------------------------------------
       NWT REQUIRED            4 OUTER ITERATIONS 
       AND A TOTAL OF          7 INNER ITERATIONS.
    ------------------------------------------------

 NO OUTPUT CONTROL FOR STRESS PERIOD    5   TIME STEP   12
 
 SOLVING FOR HEAD 
                                                   Max.-Head-Change                         Max.-Flux-Residual
  Residual-Control   Outer-Iter.   Inner-Iter.     Column Row Layer    Maximum-Head-Change  Column Row Layer    Maximum-Flux-Residual          L2-NORM 
          0                 1           2             3    8     1      -0.5252041715E-01       6    8    1        -0.8259128271E+00      0.3246386452E+01
          0                 2           2             3    8     1       0.5204196665E-02       6    8    1         0.8258826025E-01      0.3233916558E+00
          0                 3           2             3    8     1      -0.4641246741E-03       6    8    1        -0.7432974016E-02      0.2899481338E-01
          0                 4           1             3    8     1       0.3683904383E-04       6    8    1         0.5953811421E-03      0.2312903362E-02

    ------------------------------------------------
       NWT REQUIRED            4 OUTER ITERATIONS 
       AND A TOTAL OF          7 INNER ITERATIONS.
    ------------------------------------------------

 NO OUTPUT CONTROL FOR STRESS PERIOD    5   TIME STEP   13
 
 SOLVING FOR HEAD 
                                                   Max.-Head-Change                         Max.-Flux-Residual
  Residual-Control   Outer-Iter.   Inner-Iter.     Column Row Layer    Maximum-Head-Change  Column Row Layer    Maximum-Flux-Residual          L2-NORM 
          0                 1           2             3    8     1      -0.5695248242E-01       6    8    1        -0.8013574867E+00      0.3196700258E+01
          0                 2           2             3    8     1       0.5643347543E-02       6    8    1         0.8013254435E-01      0.3186944494E+00
          0                 3           2             3    8     1      -0.5032895456E-03       6    8    1        -0.7211961345E-02      0.2859801260E-01
          0                 4           1             3    8     1       0.3994768195E-04       6    8    1         0.5776780035E-03      0.2284167418E-02

    ------------------------------------------------
       NWT REQUIRED            4 OUTER ITERATIONS 
       AND A TOTAL OF          7 INNER ITERATIONS.
    ------------------------------------------------

 NO OUTPUT CONTROL FOR STRESS PERIOD    5   TIME STEP   14
 
 SOLVING FOR HEAD 
                                                   Max.-Head-Change                         Max.-Flux-Residual
  Residual-Control   Outer-Iter.   Inner-Iter.     Column Row Layer    Maximum-Head-Change  Column Row Layer    Maximum-Flux-Residual          L2-NORM 
          0                 1           2             3    8     1      -0.6167733191E-01       6    8    1        -0.7771013695E+00      0.3154806497E+01
          0                 2           2             3    8     1       0.6111504139E-02       6    8    1         0.7770676386E-01      0.3147296264E+00
          0                 3           2             3    8     1      -0.5450412871E-03       6    8    1        -0.6993642731E-02      0.2826186627E-01
          0                 4           1             3    8     1       0.4326164788E-04       6    8    1         0.5601906646E-03      0.2259067636E-02

    ------------------------------------------------
       NWT REQUIRED            4 OUTER ITERATIONS 
       AND A TOTAL OF          7 INNER ITERATIONS.
    ------------------------------------------------

 OUTPUT CONTROL FOR STRESS PERIOD    5   TIME STEP   15
    PRINT BUDGET
    SAVE BUDGET

            WELLS   PERIOD    5   STEP  15
 WELL      1   LAYER   1   ROW     6   COL     4   RATE    -3.00000    
 WELL      2   LAYER   1   ROW     6   COL     5   RATE    -3.00000    
 WELL      3   LAYER   1   ROW     7   COL     4   RATE    -3.00000    
 WELL      4   LAYER   1   ROW     7   COL     5   RATE    -3.00000    
 WELL      5   LAYER   1   ROW     8   COL     4   RATE    -3.00000    
 WELL      6   LAYER   1   ROW     8   COL     5   RATE    -3.00000    
 WELL      7   LAYER   1   ROW     9   COL     4   RATE    -3.00000    
 WELL      8   LAYER   1   ROW     9   COL     5   RATE    -3.00000    
 WELL      9   LAYER   1   ROW    10   COL     4   RATE    -3.00000    
 WELL     10   LAYER   1   ROW    10   COL     5   RATE    -3.00000    

  HEAD DEP BOUNDS   PERIOD    5   STEP    15
 BOUNDARY      1   LAYER   1   ROW    13   COL     1   RATE   -0.283019    
 BOUNDARY      2   LAYER   1   ROW    14   COL     9   RATE    0.294948    



 STREAM LISTING     PERIOD      5   STEP       15

 LAYER ROW COL. STREAM  RCH.  FLOW INTO     FLOW TO   FLOW OUT OF   OVRLND.     DIRECT     STREAM       STREAM     STREAM     STREAM   STREAMBED  STREAMBED
                SEG.NO.  NO.  STRM. RCH.    AQUIFER    STRM. RCH.    RUNOFF     PRECIP       ET          HEAD       DEPTH      WIDTH   CONDCTNC.   GRADIENT

   1    1    1     1     1    2.5000E+01  2.4590E-01   2.5081E+01  3.270E-01  0.000E+00  0.000E+00  1.09423E+03  1.181E+00  1.307E+01  5.882E-02  1.394E+00
   1    2    2     1     2    2.5081E+01  3.8325E-01   2.5207E+01  5.087E-01  0.000E+00  0.000E+00  1.08924E+03  1.182E+00  1.309E+01  9.164E-02  1.394E+00
   1    3    3     1     3    2.5207E+01  3.2921E-01   2.5313E+01  4.360E-01  0.000E+00  0.000E+00  1.08360E+03  1.184E+00  1.311E+01  7.868E-02  1.395E+00
   1    3    4     1     4    2.5313E+01  3.0510E-01   2.5412E+01  4.033E-01  0.000E+00  0.000E+00  1.07859E+03  1.186E+00  1.313E+01  7.289E-02  1.395E+00
   1    4    5     2     1    1.5412E+01  3.0445E-01   1.5401E+01  2.943E-01  0.000E+00  0.000E+00  1.07284E+03  9.032E-01  1.200E+01  7.800E-02  1.301E+00
   1    5    6     2     2    1.5401E+01  2.3417E-01   1.5394E+01  2.264E-01  0.000E+00  0.000E+00  1.06741E+03  9.028E-01  1.200E+01  6.000E-02  1.301E+00
   1    6    6     2     3    1.5394E+01  2.3415E-01   1.5386E+01  2.264E-01  0.000E+00  0.000E+00  1.06270E+03  9.026E-01  1.200E+01  6.000E-02  1.301E+00
   1    7    6     2     4    1.5386E+01  2.3414E-01   1.5378E+01  2.264E-01  0.000E+00  0.000E+00  1.05798E+03  9.023E-01  1.200E+01  6.000E-02  1.301E+00
   1    8    6     2     5    1.5378E+01  2.3412E-01   1.5370E+01  2.264E-01  0.000E+00  0.000E+00  1.05326E+03  9.020E-01  1.200E+01  6.000E-02  1.301E+00
   1    3    5     3     1    1.0000E+01  2.8252E-01   1.0831E+01  1.114E+00  0.000E+00  0.000E+00  1.07555E+03  1.909E+00  9.636E+00  7.227E-02  1.955E+00
   1    3    6     3     2    1.0831E+01  2.4905E-01   1.1696E+01  1.114E+00  0.000E+00  0.000E+00  1.07264E+03  1.727E+00  8.909E+00  6.682E-02  1.864E+00
   1    3    7     3     3    1.1696E+01  1.9718E-01   1.2501E+01  1.002E+00  0.000E+00  0.000E+00  1.06987E+03  1.555E+00  8.218E+00  5.547E-02  1.777E+00
   1    4    8     3     4    1.2501E+01  2.2567E-01   1.3611E+01  1.336E+00  0.000E+00  0.000E+00  1.06682E+03  1.364E+00  7.455E+00  6.709E-02  1.682E+00
   1    5    8     3     5    1.3611E+01  1.5790E-01   1.4567E+01  1.114E+00  0.000E+00  0.000E+00  1.06362E+03  1.164E+00  6.655E+00  4.991E-02  1.582E+00
   1    6    8     3     6    1.4567E+01  5.5980E-02   1.4957E+01  4.455E-01  0.000E+00  0.000E+00  1.06158E+03  1.036E+00  6.145E+00  1.844E-02  1.518E+00
   1    5   10     4     1    1.0000E+01  9.1028E-02   1.0136E+01  2.273E-01  0.000E+00  0.000E+00  1.07837E+03  6.411E-01  1.000E+01  2.500E-02  1.214E+00
   1    5    9     4     2    1.0136E+01  1.8244E-01   1.0408E+01  4.545E-01  0.000E+00  0.000E+00  1.07156E+03  6.489E-01  1.000E+01  5.000E-02  1.216E+00
   1    6    8     4     3    1.0408E+01  1.2802E-01   1.0599E+01  3.182E-01  0.000E+00  0.000E+00  1.06384E+03  6.576E-01  1.000E+01  3.500E-02  1.219E+00
   1    6    8     5     1    2.5555E+01  4.1771E-01   2.5531E+01  3.933E-01  0.000E+00  0.000E+00  1.05893E+03  9.325E-01  2.656E+01  1.062E-01  1.311E+00
   1    7    7     5     2    2.5531E+01  5.2176E-01   2.5501E+01  4.917E-01  0.000E+00  0.000E+00  1.05443E+03  9.322E-01  2.654E+01  1.327E-01  1.311E+00
   1    8    7     5     3    2.5501E+01  3.6499E-01   2.5480E+01  3.442E-01  0.000E+00  0.000E+00  1.05018E+03  9.319E-01  2.652E+01  9.283E-02  1.311E+00
   1    8    6     5     4    2.5480E+01  2.6058E-01   2.5465E+01  2.458E-01  0.000E+00  0.000E+00  1.04718E+03  9.316E-01  2.651E+01  6.628E-02  1.311E+00
   1    9    6     6     1    4.0836E+01  2.7871E-01   4.1341E+01  7.841E-01  0.000E+00  0.000E+00  1.04437E+03  1.645E+00  1.200E+01  6.000E-02  1.548E+00
   1   10    7     6     2    4.1341E+01  2.7943E-01   4.1846E+01  7.841E-01  0.000E+00  0.000E+00  1.03984E+03  1.657E+00  1.200E+01  6.000E-02  1.552E+00
   1   11    7     6     3    4.1846E+01  2.8016E-01   4.2350E+01  7.841E-01  0.000E+00  0.000E+00  1.03531E+03  1.669E+00  1.200E+01  6.000E-02  1.556E+00
   1   12    7     6     4    4.2350E+01  2.8087E-01   4.2853E+01  7.841E-01  0.000E+00  0.000E+00  1.03077E+03  1.681E+00  1.200E+01  6.000E-02  1.560E+00
   1   13    7     6     5    4.2853E+01  4.4161E-02   4.3122E+01  3.136E-01  0.000E+00  0.000E+00  1.02760E+03  1.690E+00  1.200E+01  2.400E-02  6.134E-01
   1   14    9     7     1    1.5000E+02  1.4722E+00   1.4926E+02  7.339E-01  0.000E+00  0.000E+00  1.03987E+03  2.289E+00  5.530E+01  5.594E-01  8.773E-01
   1   13    8     7     2    1.4926E+02  2.2710E+00   1.4780E+02  8.073E-01  0.000E+00  0.000E+00  1.03478E+03  2.283E+00  5.528E+01  6.150E-01  1.231E+00
   1   13    7     7     3    1.4780E+02  2.1989E+00   1.4633E+02  7.339E-01  0.000E+00  0.000E+00  1.02969E+03  2.276E+00  5.524E+01  5.587E-01  1.312E+00
   1   13    6     8     1    1.8946E+02  1.7837E+00   1.9165E+02  3.978E+00  0.000E+00  0.000E+00  1.02496E+03  3.081E+00  4.468E+01  4.553E-01  1.306E+00
   1   13    5     8     2    1.9165E+02  1.1986E+00   1.9443E+02  3.978E+00  0.000E+00  0.000E+00  1.01872E+03  3.096E+00  4.490E+01  4.575E-01  8.733E-01
   1   13    4     8     3    1.9443E+02  2.9761E-01   1.9811E+02  3.978E+00  0.000E+00  0.000E+00  1.01249E+03  3.116E+00  4.518E+01  4.604E-01  2.155E-01
   1   13    3     8     4    1.9811E+02 -1.3418E+00   2.0343E+02  3.978E+00  0.000E+00  0.000E+00  1.00627E+03  3.142E+00  4.556E+01  4.643E+00 -9.633E-02
   1   13    2     8     5    2.0343E+02 -1.2693E+00   2.0867E+02  3.978E+00  0.000E+00  0.000E+00  1.00005E+03  3.173E+00  4.601E+01  4.688E+00 -9.024E-02
   1   13    1     8     6    2.0867E+02 -1.0630E+00   2.1212E+02  2.387E+00  0.000E+00  0.000E+00  9.95073E+02  3.198E+00  4.637E+01  2.835E+00 -1.250E-01



 UBDSV3 SAVING "     NETRECHARGE" ON UNIT 100 AT TIME STEP 15, STRESS PERIOD   5
 UBDSV3 SAVING "    NETDISCHARGE" ON UNIT 101 AT TIME STEP 15, STRESS PERIOD   5
 UBDSV3 SAVING "           GW ET" ON UNIT  61 AT TIME STEP 15, STRESS PERIOD   5
 UBDSV3 SAVING "    UZF RECHARGE" ON UNIT  61 AT TIME STEP 15, STRESS PERIOD   5
 UBDSV3 SAVING " SURFACE LEAKAGE" ON UNIT  61 AT TIME STEP 15, STRESS PERIOD   5
 UBDSV3 SAVING "       HORT+DUNN" ON UNIT  61 AT TIME STEP 15, STRESS PERIOD   5
 UBDSV3 SAVING "  STORAGE CHANGE" ON UNIT  61 AT TIME STEP 15, STRESS PERIOD   5


UNSATURATED ZONE PACKAGE VOLUMETRIC BUDGET FOR  TIME STEP    15 STRESS PERIOD    5
  ------------------------------------------------------------------------------



     CUMULATIVE VOLUMES      L**3       RATES FOR THIS TIME STEP      L**3/T
     ------------------                 ------------------------

           IN:                                      IN:
           ---                                      ---
        INFILTRATION =    38105996.7148          INFILTRATION =           2.9000

          OUT:                                     OUT:
          ----                                     ----
              UZF ET =     7852951.1110                UZF ET =           1.1749
        UZF RECHARGE =     7879692.3965          UZF RECHARGE =       0.0000E+00

            IN - OUT =    22373353.2073              IN - OUT =           1.7251

          STORAGE:                                 STORAGE:
          --------                                 --------
      STORAGE CHANGE =    22373348.5679        STORAGE CHANGE =           1.7251

 PERCENT DISCREPANCY IS DIFFERENCE BETWEEN IN-OUT MINUS CHANGE IN STORAGE
 DIVIDED BY THE AVERAGE OF IN AND OUT TIMES 100

 PERCENT DISCREPANCY =           0.00     PERCENT DISCREPANCY =           0.00






1
  VOLUMETRIC BUDGET FOR ENTIRE MODEL AT END OF TIME STEP   15, STRESS PERIOD   5
  ------------------------------------------------------------------------------

     CUMULATIVE VOLUMES      L**3       RATES FOR THIS TIME STEP      L**3/T
     ------------------                 ------------------------

           IN:                                      IN:
           ---                                      ---
             STORAGE =   321342944.0000               STORAGE =          23.7833
       CONSTANT HEAD =           0.0000         CONSTANT HEAD =           0.0000
               WELLS =           0.0000                 WELLS =           0.0000
     HEAD DEP BOUNDS =     3866283.2500       HEAD DEP BOUNDS =           0.2949
      STREAM LEAKAGE =   213839152.0000        STREAM LEAKAGE =          16.0246
        UZF RECHARGE =     7879697.5000          UZF RECHARGE =           0.0000
               GW ET =           0.0000                 GW ET =           0.0000
     SURFACE LEAKAGE =           0.0000       SURFACE LEAKAGE =           0.0000

            TOTAL IN =   546928064.0000              TOTAL IN =          40.1029

          OUT:                                     OUT:
          ----                                     ----
             STORAGE =     5876607.5000               STORAGE =           0.0000
       CONSTANT HEAD =           0.0000         CONSTANT HEAD =           0.0000
               WELLS =   420480000.0000                 WELLS =          30.0000
     HEAD DEP BOUNDS =     3776196.0000       HEAD DEP BOUNDS =           0.2830
      STREAM LEAKAGE =    48513260.0000        STREAM LEAKAGE =           3.6741
        UZF RECHARGE =           0.0000          UZF RECHARGE =           0.0000
               GW ET =    68296136.0000                 GW ET =           6.1469
     SURFACE LEAKAGE =           0.0000       SURFACE LEAKAGE =           0.0000

           TOTAL OUT =   546942208.0000             TOTAL OUT =          40.1041

            IN - OUT =      -14144.0000              IN - OUT =      -1.2016E-03

 PERCENT DISCREPANCY =          -0.00     PERCENT DISCREPANCY =          -0.00






         TIME SUMMARY AT END OF TIME STEP   15 IN STRESS PERIOD    5
                    SECONDS     MINUTES      HOURS       DAYS        YEARS
                    -----------------------------------------------------------
   TIME STEP LENGTH 3.14103E+05  5235.0      87.251      3.6354     9.95332E-03
 STRESS PERIOD TIME 2.62800E+06  43800.      730.00      30.417     8.32763E-02
         TOTAL TIME 1.31400E+07 2.19000E+05  3650.0      152.08     0.41638    
1
1
                            STRESS PERIOD NO.    6, LENGTH =   2628000.    
                            -----------------------------------------------

                              NUMBER OF TIME STEPS =    15

                               MULTIPLIER FOR DELT =     1.100

                            INITIAL TIME STEP SIZE =   82713.07    

      0 WELLS

 REUSING NON-PARAMETER GHB CELLS FROM LAST STRESS PERIOD

      2 GHB CELLS

 REUSING STREAM SEGMENT DATA FROM LAST STRESS PERIOD



            AREAL INFILTRATION RATE
 READING ON UNIT   19 WITH FORMAT: (10F4.0)            

            1           2           3           4           5           6           7           8           9          10
 ........................................................................................................................
   1   1.0000E-08  2.0000E-08   0.000       0.000       0.000       0.000       0.000       0.000       0.000       0.000    
   2   2.0000E-08  1.0000E-08  2.0000E-08   0.000       0.000      8.0000E-08  8.0000E-08  5.0000E-08   0.000       0.000    
   3    0.000      5.0000E-08  1.0000E-08  1.0000E-08  8.0000E-08  8.0000E-08  5.0000E-08  5.0000E-08   0.000       0.000    
   4   8.0000E-08  5.0000E-08  1.0000E-08  1.0000E-08  1.0000E-08  1.0000E-08  1.0000E-08  1.0000E-08  2.0000E-08   0.000    
   5   8.0000E-08  5.0000E-08  1.0000E-08  1.0000E-08  1.0000E-08  1.0000E-08  1.0000E-08  1.0000E-08  1.0000E-08  1.0000E-08
   6   8.0000E-08  5.0000E-08  5.0000E-08  2.0000E-08  2.0000E-08  1.0000E-08  1.0000E-08  1.0000E-08  1.0000E-08  5.0000E-08
   7   8.0000E-08  5.0000E-08  5.0000E-08  2.0000E-08  2.0000E-08  1.0000E-08  1.0000E-08  2.0000E-08  2.0000E-08   0.000    
   8    0.000      5.0000E-08  5.0000E-08  2.0000E-08  2.0000E-08  1.0000E-08  1.0000E-08  2.0000E-08  5.0000E-08   0.000    
   9    0.000      5.0000E-08  5.0000E-08  2.0000E-08  2.0000E-08  1.0000E-08  1.0000E-08  2.0000E-08  5.0000E-08   0.000    
  10    0.000      5.0000E-08  5.0000E-08  2.0000E-08  2.0000E-08  1.0000E-08  1.0000E-08  2.0000E-08  5.0000E-08  8.0000E-08
  11    0.000      1.0000E-08  1.0000E-08  1.0000E-08  1.0000E-08  1.0000E-08  1.0000E-08  2.0000E-08  5.0000E-08   0.000    
  12   1.0000E-08  1.0000E-08  1.0000E-08  1.0000E-08  1.0000E-08  1.0000E-08  1.0000E-08  1.0000E-08  2.0000E-08   0.000    
  13   1.0000E-08  1.0000E-08  2.0000E-08  2.0000E-08  2.0000E-08  2.0000E-08  2.0000E-08  1.0000E-08  1.0000E-08   0.000    
  14    0.000      2.0000E-08  5.0000E-08  5.0000E-08  5.0000E-08  5.0000E-08  5.0000E-08  2.0000E-08  1.0000E-08   0.000    
  15    0.000       0.000      8.0000E-08  8.0000E-08  8.0000E-08  8.0000E-08   0.000       0.000       0.000       0.000    

USING ET RATE FROM PREVIOUS STRESS PERIOD. CURRENT PERIOD IS:       6

 USING ET EXTINCTION DEPTH FROM PREVIOUS STRESS PERIOD. CURRENT PERIOD IS:       6

 USING EXTINCTION WATER CONTENT FROM PREVIOUS STRESS PERIOD. CURRENT PERIOD IS:       6
 
 SOLVING FOR HEAD 
                                                   Max.-Head-Change                         Max.-Flux-Residual
  Residual-Control   Outer-Iter.   Inner-Iter.     Column Row Layer    Maximum-Head-Change  Column Row Layer    Maximum-Flux-Residual          L2-NORM 
          0                 1           2             4   10     1       0.4538049645E-01       5    6    1         0.2577572547E+01      0.8257332078E+01
          0                 2           2             4   10     1      -0.4496787619E-02       5    6    1        -0.2577562632E+00      0.8255127180E+00
          0                 3           2             4   10     1       0.4010351950E-03       5    6    1         0.2319807629E-01      0.7427559246E-01
          0                 4           1             4   10     1      -0.3183143848E-04       5    6    1        -0.1858166303E-02      0.5947728765E-02

    ------------------------------------------------
       NWT REQUIRED            4 OUTER ITERATIONS 
       AND A TOTAL OF          7 INNER ITERATIONS.
    ------------------------------------------------

 NO OUTPUT CONTROL FOR STRESS PERIOD    6   TIME STEP    1
 
 SOLVING FOR HEAD 
                                                   Max.-Head-Change                         Max.-Flux-Residual
  Residual-Control   Outer-Iter.   Inner-Iter.     Column Row Layer    Maximum-Head-Change  Column Row Layer    Maximum-Flux-Residual          L2-NORM 
          0                 1           2             4   10     1       0.4883825156E-01       4   10    1         0.2498643240E+01      0.8089379600E+01
          0                 2           2             4   10     1      -0.4839418095E-02       4   10    1        -0.2498637629E+00      0.8087341835E+00
          0                 3           2             4   10     1       0.4315918808E-03       4   10    1         0.2248774696E-01      0.7276716678E-01
          0                 4           1             4   10     1      -0.3425681934E-04       4   10    1        -0.1801268939E-02      0.5827081697E-02

    ------------------------------------------------
       NWT REQUIRED            4 OUTER ITERATIONS 
       AND A TOTAL OF          7 INNER ITERATIONS.
    ------------------------------------------------

 NO OUTPUT CONTROL FOR STRESS PERIOD    6   TIME STEP    2
 
 SOLVING FOR HEAD 
                                                   Max.-Head-Change                         Max.-Flux-Residual
  Residual-Control   Outer-Iter.   Inner-Iter.     Column Row Layer    Maximum-Head-Change  Column Row Layer    Maximum-Flux-Residual          L2-NORM 
          0                 1           2             4   10     1       0.5245779351E-01       4   10    1         0.2444567391E+01      0.7914524041E+01
          0                 2           2             4   10     1      -0.5198079992E-02       4   10    1        -0.2444561211E+00      0.7912674851E+00
          0                 3           2             4   10     1       0.4635782924E-03       4   10    1         0.2200105970E-01      0.7119702402E-01
          0                 4           1             4   10     1      -0.3679568282E-04       4   10    1        -0.1762285280E-02      0.5701500890E-02

    ------------------------------------------------
       NWT REQUIRED            4 OUTER ITERATIONS 
       AND A TOTAL OF          7 INNER ITERATIONS.
    ------------------------------------------------

 NO OUTPUT CONTROL FOR STRESS PERIOD    6   TIME STEP    3
 
 SOLVING FOR HEAD 
                                                   Max.-Head-Change                         Max.-Flux-Residual
  Residual-Control   Outer-Iter.   Inner-Iter.     Column Row Layer    Maximum-Head-Change  Column Row Layer    Maximum-Flux-Residual          L2-NORM 
          0                 1           2             4    9     1       0.5705443362E-01       4   10    1         0.2387044494E+01      0.7733090923E+01
          0                 2           2             4    9     1      -0.5653583003E-02       4   10    1        -0.2387037801E+00      0.7731446023E+00
          0                 3           2             4    9     1       0.5042010496E-03       4   10    1         0.2148334944E-01      0.6956799656E-01
          0                 4           1             4    9     1      -0.4002004111E-04       4   10    1        -0.1720816676E-02      0.5571105733E-02

    ------------------------------------------------
       NWT REQUIRED            4 OUTER ITERATIONS 
       AND A TOTAL OF          7 INNER ITERATIONS.
    ------------------------------------------------

 NO OUTPUT CONTROL FOR STRESS PERIOD    6   TIME STEP    4
 
 SOLVING FOR HEAD 
                                                   Max.-Head-Change                         Max.-Flux-Residual
  Residual-Control   Outer-Iter.   Inner-Iter.     Column Row Layer    Maximum-Head-Change  Column Row Layer    Maximum-Flux-Residual          L2-NORM 
          0                 1           2             4    9     1       0.6221286011E-01       4    9    1         0.2359937508E+01      0.7545462423E+01
          0                 2           2             4    9     1      -0.6164742388E-02       4    9    1        -0.2359944391E+00      0.7544030911E+00
          0                 3           2             4    9     1       0.5497875017E-03       4    9    1         0.2123949540E-01      0.6788322531E-01
          0                 4           1             4    9     1      -0.4363838380E-04       4    9    1        -0.1701284071E-02      0.5436381552E-02

    ------------------------------------------------
       NWT REQUIRED            4 OUTER ITERATIONS 
       AND A TOTAL OF          7 INNER ITERATIONS.
    ------------------------------------------------

 OUTPUT CONTROL FOR STRESS PERIOD    6   TIME STEP    5
    PRINT BUDGET
    SAVE BUDGET

  HEAD DEP BOUNDS   PERIOD    6   STEP     5
 BOUNDARY      1   LAYER   1   ROW    13   COL     1   RATE   -0.283779    
 BOUNDARY      2   LAYER   1   ROW    14   COL     9   RATE    0.294993    



 STREAM LISTING     PERIOD      6   STEP        5

 LAYER ROW COL. STREAM  RCH.  FLOW INTO     FLOW TO   FLOW OUT OF   OVRLND.     DIRECT     STREAM       STREAM     STREAM     STREAM   STREAMBED  STREAMBED
                SEG.NO.  NO.  STRM. RCH.    AQUIFER    STRM. RCH.    RUNOFF     PRECIP       ET          HEAD       DEPTH      WIDTH   CONDCTNC.   GRADIENT

   1    1    1     1     1    2.5000E+01  2.4674E-01   2.5446E+01  6.931E-01  0.000E+00  0.000E+00  1.09423E+03  1.183E+00  1.311E+01  5.898E-02  1.394E+00
   1    2    2     1     2    2.5446E+01  3.8786E-01   2.6137E+01  1.078E+00  0.000E+00  0.000E+00  1.08925E+03  1.192E+00  1.322E+01  9.253E-02  1.397E+00
   1    3    3     1     3    2.6137E+01  3.3630E-01   2.6724E+01  9.241E-01  0.000E+00  0.000E+00  1.08362E+03  1.201E+00  1.334E+01  8.005E-02  1.400E+00
   1    3    4     1     4    2.6724E+01  3.1418E-01   2.7265E+01  8.548E-01  0.000E+00  0.000E+00  1.07862E+03  1.209E+00  1.345E+01  7.464E-02  1.403E+00
   1    4    5     2     1    1.7265E+01  3.0989E-01   1.7617E+01  6.623E-01  0.000E+00  0.000E+00  1.07291E+03  9.729E-01  1.200E+01  7.800E-02  1.324E+00
   1    5    6     2     2    1.7617E+01  2.3900E-01   1.7888E+01  5.094E-01  0.000E+00  0.000E+00  1.06749E+03  9.833E-01  1.200E+01  6.000E-02  1.328E+00
   1    6    6     2     3    1.7888E+01  2.3954E-01   1.8158E+01  5.094E-01  0.000E+00  0.000E+00  1.06278E+03  9.923E-01  1.200E+01  6.000E-02  1.331E+00
   1    7    6     2     4    1.8158E+01  2.4007E-01   1.8427E+01  5.094E-01  0.000E+00  0.000E+00  1.05808E+03  1.001E+00  1.200E+01  6.000E-02  1.334E+00
   1    8    6     2     5    1.8427E+01  2.4060E-01   1.8696E+01  5.094E-01  0.000E+00  0.000E+00  1.05337E+03  1.010E+00  1.200E+01  6.000E-02  1.337E+00
   1    3    5     3     1    1.0000E+01  2.8252E-01   1.1990E+01  2.273E+00  0.000E+00  0.000E+00  1.07555E+03  1.909E+00  9.636E+00  7.227E-02  1.955E+00
   1    3    6     3     2    1.1990E+01  2.4905E-01   1.4014E+01  2.273E+00  0.000E+00  0.000E+00  1.07264E+03  1.727E+00  8.909E+00  6.682E-02  1.864E+00
   1    3    7     3     3    1.4014E+01  1.9718E-01   1.5862E+01  2.045E+00  0.000E+00  0.000E+00  1.06987E+03  1.555E+00  8.218E+00  5.547E-02  1.777E+00
   1    4    8     3     4    1.5862E+01  2.2567E-01   1.8364E+01  2.727E+00  0.000E+00  0.000E+00  1.06682E+03  1.364E+00  7.455E+00  6.709E-02  1.682E+00
   1    5    8     3     5    1.8364E+01  1.5790E-01   2.0479E+01  2.273E+00  0.000E+00  0.000E+00  1.06362E+03  1.164E+00  6.655E+00  4.991E-02  1.582E+00
   1    6    8     3     6    2.0479E+01  5.5980E-02   2.1332E+01  9.091E-01  0.000E+00  0.000E+00  1.06158E+03  1.036E+00  6.145E+00  1.844E-02  1.518E+00
   1    5   10     4     1    1.0000E+01  9.1150E-02   1.0392E+01  4.830E-01  0.000E+00  0.000E+00  1.07837E+03  6.460E-01  1.000E+01  2.500E-02  1.215E+00
   1    5    9     4     2    1.0392E+01  1.8340E-01   1.1174E+01  9.659E-01  0.000E+00  0.000E+00  1.07158E+03  6.681E-01  1.000E+01  5.000E-02  1.223E+00
   1    6    8     4     3    1.1174E+01  1.2924E-01   1.1721E+01  6.761E-01  0.000E+00  0.000E+00  1.06387E+03  6.925E-01  1.000E+01  3.500E-02  1.231E+00
   1    6    8     5     1    3.3053E+01  5.0019E-01   3.3379E+01  8.267E-01  0.000E+00  0.000E+00  1.05902E+03  1.022E+00  3.109E+01  1.244E-01  1.341E+00
   1    7    7     5     2    3.3379E+01  6.2996E-01   3.3783E+01  1.033E+00  0.000E+00  0.000E+00  1.05453E+03  1.026E+00  3.129E+01  1.565E-01  1.342E+00
   1    8    7     5     3    3.3783E+01  4.4406E-01   3.4062E+01  7.233E-01  0.000E+00  0.000E+00  1.05028E+03  1.030E+00  3.148E+01  1.102E-01  1.343E+00
   1    8    6     5     4    3.4062E+01  3.1872E-01   3.4260E+01  5.167E-01  0.000E+00  0.000E+00  1.04728E+03  1.032E+00  3.162E+01  7.904E-02  1.344E+00
   1    9    6     6     1    5.2956E+01  2.9581E-01   5.4296E+01  1.636E+00  0.000E+00  0.000E+00  1.04466E+03  1.930E+00  1.200E+01  6.000E-02  1.643E+00
   1   10    7     6     2    5.4296E+01  2.9754E-01   5.5635E+01  1.636E+00  0.000E+00  0.000E+00  1.04014E+03  1.959E+00  1.200E+01  6.000E-02  1.653E+00
   1   11    7     6     3    5.5635E+01  2.9925E-01   5.6972E+01  1.636E+00  0.000E+00  0.000E+00  1.03562E+03  1.987E+00  1.200E+01  6.000E-02  1.662E+00
   1   12    7     6     4    5.6972E+01  3.0094E-01   5.8308E+01  1.636E+00  0.000E+00  0.000E+00  1.03111E+03  2.016E+00  1.200E+01  6.000E-02  1.672E+00
   1   13    7     6     5    5.8308E+01  5.2619E-02   5.8910E+01  6.545E-01  0.000E+00  0.000E+00  1.02794E+03  2.036E+00  1.200E+01  2.400E-02  7.308E-01
   1   14    9     7     1    1.5000E+02  1.4743E+00   1.5007E+02  1.540E+00  0.000E+00  0.000E+00  1.03987E+03  2.291E+00  5.531E+01  5.595E-01  8.784E-01
   1   13    8     7     2    1.5007E+02  2.2777E+00   1.4948E+02  1.694E+00  0.000E+00  0.000E+00  1.03479E+03  2.290E+00  5.531E+01  6.154E-01  1.234E+00
   1   13    7     7     3    1.4948E+02  2.2111E+00   1.4881E+02  1.540E+00  0.000E+00  0.000E+00  1.02971E+03  2.287E+00  5.529E+01  5.593E-01  1.318E+00
   1   13    6     8     1    2.0772E+02  1.9140E+00   2.1400E+02  8.196E+00  0.000E+00  0.000E+00  1.02508E+03  3.201E+00  4.641E+01  4.729E-01  1.349E+00
   1   13    5     8     2    2.1400E+02  1.3288E+00   2.2087E+02  8.196E+00  0.000E+00  0.000E+00  1.01886E+03  3.238E+00  4.695E+01  4.784E-01  9.259E-01
   1   13    4     8     3    2.2087E+02  4.0078E-01   2.2867E+02  8.196E+00  0.000E+00  0.000E+00  1.01265E+03  3.278E+00  4.753E+01  4.844E-01  2.758E-01
   1   13    3     8     4    2.2867E+02 -7.4023E-01   2.3760E+02  8.196E+00  0.000E+00  0.000E+00  1.00645E+03  3.323E+00  4.819E+01  4.911E+00 -5.025E-02
   1   13    2     8     5    2.3760E+02 -6.1359E-01   2.4641E+02  8.196E+00  0.000E+00  0.000E+00  1.00025E+03  3.370E+00  4.887E+01  4.980E+00 -4.107E-02
   1   13    1     8     6    2.4641E+02 -5.6074E-01   2.5189E+02  4.918E+00  0.000E+00  0.000E+00  9.95282E+02  3.407E+00  4.940E+01  3.021E+00 -6.188E-02



 UBDSV3 SAVING "     NETRECHARGE" ON UNIT 100 AT TIME STEP  5, STRESS PERIOD   6
 UBDSV3 SAVING "    NETDISCHARGE" ON UNIT 101 AT TIME STEP  5, STRESS PERIOD   6
 UBDSV3 SAVING "           GW ET" ON UNIT  61 AT TIME STEP  5, STRESS PERIOD   6
 UBDSV3 SAVING "    UZF RECHARGE" ON UNIT  61 AT TIME STEP  5, STRESS PERIOD   6
 UBDSV3 SAVING " SURFACE LEAKAGE" ON UNIT  61 AT TIME STEP  5, STRESS PERIOD   6
 UBDSV3 SAVING "       HORT+DUNN" ON UNIT  61 AT TIME STEP  5, STRESS PERIOD   6
 UBDSV3 SAVING "  STORAGE CHANGE" ON UNIT  61 AT TIME STEP  5, STRESS PERIOD   6


UNSATURATED ZONE PACKAGE VOLUMETRIC BUDGET FOR  TIME STEP     5 STRESS PERIOD    6
  ------------------------------------------------------------------------------



     CUMULATIVE VOLUMES      L**3       RATES FOR THIS TIME STEP      L**3/T
     ------------------                 ------------------------

           IN:                                      IN:
           ---                                      ---
        INFILTRATION =    39570414.2744          INFILTRATION =           2.9000

          OUT:                                     OUT:
          ----                                     ----
              UZF ET =     8444682.5419                UZF ET =           1.1723
        UZF RECHARGE =     7879692.3965          UZF RECHARGE =       0.0000E+00

            IN - OUT =    23246039.3360              IN - OUT =           1.7277

          STORAGE:                                 STORAGE:
          --------                                 --------
      STORAGE CHANGE =    23246034.6784        STORAGE CHANGE =           1.7277

 PERCENT DISCREPANCY IS DIFFERENCE BETWEEN IN-OUT MINUS CHANGE IN STORAGE
 DIVIDED BY THE AVERAGE OF IN AND OUT TIMES 100

 PERCENT DISCREPANCY =           0.00     PERCENT DISCREPANCY =           0.00






1
  VOLUMETRIC BUDGET FOR ENTIRE MODEL AT END OF TIME STEP    5, STRESS PERIOD   6
  ------------------------------------------------------------------------------

     CUMULATIVE VOLUMES      L**3       RATES FOR THIS TIME STEP      L**3/T
     ------------------                 ------------------------

           IN:                                      IN:
           ---                                      ---
             STORAGE =   329097696.0000               STORAGE =          14.3877
       CONSTANT HEAD =           0.0000         CONSTANT HEAD =           0.0000
               WELLS =           0.0000                 WELLS =           0.0000
     HEAD DEP BOUNDS =     4015237.5000       HEAD DEP BOUNDS =           0.2950
      STREAM LEAKAGE =   222353552.0000        STREAM LEAKAGE =          16.8720
        UZF RECHARGE =     7879697.5000          UZF RECHARGE =           0.0000
               GW ET =           0.0000                 GW ET =           0.0000
     SURFACE LEAKAGE =           0.0000       SURFACE LEAKAGE =           0.0000

            TOTAL IN =   563346176.0000              TOTAL IN =          31.5547

          OUT:                                     OUT:
          ----                                     ----
             STORAGE =    18170864.0000               STORAGE =          23.2087
       CONSTANT HEAD =           0.0000         CONSTANT HEAD =           0.0000
               WELLS =   420480000.0000                 WELLS =           0.0000
     HEAD DEP BOUNDS =     3919350.5000       HEAD DEP BOUNDS =           0.2838
      STREAM LEAKAGE =    49389548.0000        STREAM LEAKAGE =           1.9146
        UZF RECHARGE =           0.0000          UZF RECHARGE =           0.0000
               GW ET =    71400304.0000                 GW ET =           6.1472
     SURFACE LEAKAGE =           0.0000       SURFACE LEAKAGE =           0.0000

           TOTAL OUT =   563360064.0000             TOTAL OUT =          31.5542

            IN - OUT =      -13888.0000              IN - OUT =       4.5013E-04

 PERCENT DISCREPANCY =          -0.00     PERCENT DISCREPANCY =           0.00






         TIME SUMMARY AT END OF TIME STEP    5 IN STRESS PERIOD    6
                    SECONDS     MINUTES      HOURS       DAYS        YEARS
                    -----------------------------------------------------------
   TIME STEP LENGTH 1.21100E+05  2018.3      33.639      1.4016     3.83743E-03
 STRESS PERIOD TIME 5.04972E+05  8416.2      140.27      5.8446     1.60016E-02
         TOTAL TIME 1.36450E+07 2.27416E+05  3790.3      157.93     0.43238    
1
 
 SOLVING FOR HEAD 
                                                   Max.-Head-Change                         Max.-Flux-Residual
  Residual-Control   Outer-Iter.   Inner-Iter.     Column Row Layer    Maximum-Head-Change  Column Row Layer    Maximum-Flux-Residual          L2-NORM 
          0                 1           2             4    9     1       0.6773445403E-01       4    9    1         0.2339374296E+01      0.7352071495E+01
          0                 2           2             4    9     1      -0.6711891427E-02       4    9    1        -0.2339384792E+00      0.7350855422E+00
          0                 3           2             4    9     1       0.5985835729E-03       4    9    1         0.2105445544E-01      0.6614670319E-01
          0                 4           1             4    9     1      -0.4751148393E-04       4    9    1        -0.1686462389E-02      0.5297456806E-02

    ------------------------------------------------
       NWT REQUIRED            4 OUTER ITERATIONS 
       AND A TOTAL OF          7 INNER ITERATIONS.
    ------------------------------------------------

 NO OUTPUT CONTROL FOR STRESS PERIOD    6   TIME STEP    6
 
 SOLVING FOR HEAD 
                                                   Max.-Head-Change                         Max.-Flux-Residual
  Residual-Control   Outer-Iter.   Inner-Iter.     Column Row Layer    Maximum-Head-Change  Column Row Layer    Maximum-Flux-Residual          L2-NORM 
          0                 1           2             4    9     1       0.7361856454E-01       4    9    1         0.2315455175E+01      0.7153372147E+01
          0                 2           2             4    9     1      -0.7294966709E-02       4    9    1        -0.2315470309E+00      0.7152370264E+00
          0                 3           2             4    9     1       0.6505835984E-03       4    9    1         0.2083922052E-01      0.6436231881E-01
          0                 4           1             4    9     1      -0.5163889225E-04       4    9    1        -0.1669222111E-02      0.5154691131E-02

    ------------------------------------------------
       NWT REQUIRED            4 OUTER ITERATIONS 
       AND A TOTAL OF          7 INNER ITERATIONS.
    ------------------------------------------------

 NO OUTPUT CONTROL FOR STRESS PERIOD    6   TIME STEP    7
 
 SOLVING FOR HEAD 
                                                   Max.-Head-Change                         Max.-Flux-Residual
  Residual-Control   Outer-Iter.   Inner-Iter.     Column Row Layer    Maximum-Head-Change  Column Row Layer    Maximum-Flux-Residual          L2-NORM 
          0                 1           2             4    9     1       0.7985779719E-01       4    9    1         0.2287815832E+01      0.6949885578E+01
          0                 2           2             4    9     1      -0.7913236854E-02       4    9    1        -0.2287836781E+00      0.6949087315E+00
          0                 3           2             4    9     1       0.7057223372E-03       4    9    1         0.2059051301E-01      0.6253457725E-01
          0                 4           1             4    9     1      -0.5601543096E-04       4    9    1        -0.1649300675E-02      0.5008381508E-02

    ------------------------------------------------
       NWT REQUIRED            4 OUTER ITERATIONS 
       AND A TOTAL OF          7 INNER ITERATIONS.
    ------------------------------------------------

 NO OUTPUT CONTROL FOR STRESS PERIOD    6   TIME STEP    8
 
 SOLVING FOR HEAD 
                                                   Max.-Head-Change                         Max.-Flux-Residual
  Residual-Control   Outer-Iter.   Inner-Iter.     Column Row Layer    Maximum-Head-Change  Column Row Layer    Maximum-Flux-Residual          L2-NORM 
          0                 1           2             4    9     1       0.8643691990E-01       4    9    1         0.2256104275E+01      0.6742129678E+01
          0                 2           2             4    9     1      -0.8565194115E-02       4    9    1        -0.2256132357E+00      0.6741523224E+00
          0                 3           2             4    9     1       0.7638653103E-03       4    9    1         0.2030516615E-01      0.6066829527E-01
          0                 4           1             4    9     1      -0.6063042627E-04       4    9    1        -0.1626444451E-02      0.4859125422E-02

    ------------------------------------------------
       NWT REQUIRED            4 OUTER ITERATIONS 
       AND A TOTAL OF          7 INNER ITERATIONS.
    ------------------------------------------------

 NO OUTPUT CONTROL FOR STRESS PERIOD    6   TIME STEP    9
 
 SOLVING FOR HEAD 
                                                   Max.-Head-Change                         Max.-Flux-Residual
  Residual-Control   Outer-Iter.   Inner-Iter.     Column Row Layer    Maximum-Head-Change  Column Row Layer    Maximum-Flux-Residual          L2-NORM 
          0                 1           2             4    9     1       0.9333100350E-01       4    9    1         0.2219974286E+01      0.6530652950E+01
          0                 2           2             4    9     1      -0.9248370121E-02       4    9    1        -0.2220010933E+00      0.6530214767E+00
          0                 3           2             4    9     1       0.8247923622E-03       4    9    1         0.1998006489E-01      0.5876796487E-01
          0                 4           1             4    9     1      -0.6546640217E-04       4    9    1        -0.1600403889E-02      0.4706954592E-02

    ------------------------------------------------
       NWT REQUIRED            4 OUTER ITERATIONS 
       AND A TOTAL OF          7 INNER ITERATIONS.
    ------------------------------------------------

 OUTPUT CONTROL FOR STRESS PERIOD    6   TIME STEP   10
    PRINT BUDGET
    SAVE BUDGET

  HEAD DEP BOUNDS   PERIOD    6   STEP    10
 BOUNDARY      1   LAYER   1   ROW    13   COL     1   RATE   -0.284660    
 BOUNDARY      2   LAYER   1   ROW    14   COL     9   RATE    0.295064    



 STREAM LISTING     PERIOD      6   STEP       10

 LAYER ROW COL. STREAM  RCH.  FLOW INTO     FLOW TO   FLOW OUT OF   OVRLND.     DIRECT     STREAM       STREAM     STREAM     STREAM   STREAMBED  STREAMBED
                SEG.NO.  NO.  STRM. RCH.    AQUIFER    STRM. RCH.    RUNOFF     PRECIP       ET          HEAD       DEPTH      WIDTH   CONDCTNC.   GRADIENT

   1    1    1     1     1    2.5000E+01  2.4674E-01   2.5446E+01  6.931E-01  0.000E+00  0.000E+00  1.09423E+03  1.183E+00  1.311E+01  5.898E-02  1.394E+00
   1    2    2     1     2    2.5446E+01  3.8786E-01   2.6137E+01  1.078E+00  0.000E+00  0.000E+00  1.08925E+03  1.192E+00  1.322E+01  9.253E-02  1.397E+00
   1    3    3     1     3    2.6137E+01  3.3630E-01   2.6724E+01  9.241E-01  0.000E+00  0.000E+00  1.08362E+03  1.201E+00  1.334E+01  8.005E-02  1.400E+00
   1    3    4     1     4    2.6724E+01  3.1418E-01   2.7265E+01  8.548E-01  0.000E+00  0.000E+00  1.07862E+03  1.209E+00  1.345E+01  7.464E-02  1.403E+00
   1    4    5     2     1    1.7265E+01  3.0989E-01   1.7617E+01  6.623E-01  0.000E+00  0.000E+00  1.07291E+03  9.729E-01  1.200E+01  7.800E-02  1.324E+00
   1    5    6     2     2    1.7617E+01  2.3900E-01   1.7888E+01  5.094E-01  0.000E+00  0.000E+00  1.06749E+03  9.833E-01  1.200E+01  6.000E-02  1.328E+00
   1    6    6     2     3    1.7888E+01  2.3954E-01   1.8158E+01  5.094E-01  0.000E+00  0.000E+00  1.06278E+03  9.923E-01  1.200E+01  6.000E-02  1.331E+00
   1    7    6     2     4    1.8158E+01  2.4007E-01   1.8427E+01  5.094E-01  0.000E+00  0.000E+00  1.05808E+03  1.001E+00  1.200E+01  6.000E-02  1.334E+00
   1    8    6     2     5    1.8427E+01  2.4060E-01   1.8696E+01  5.094E-01  0.000E+00  0.000E+00  1.05337E+03  1.010E+00  1.200E+01  6.000E-02  1.337E+00
   1    3    5     3     1    1.0000E+01  2.8252E-01   1.1990E+01  2.273E+00  0.000E+00  0.000E+00  1.07555E+03  1.909E+00  9.636E+00  7.227E-02  1.955E+00
   1    3    6     3     2    1.1990E+01  2.4905E-01   1.4014E+01  2.273E+00  0.000E+00  0.000E+00  1.07264E+03  1.727E+00  8.909E+00  6.682E-02  1.864E+00
   1    3    7     3     3    1.4014E+01  1.9718E-01   1.5862E+01  2.045E+00  0.000E+00  0.000E+00  1.06987E+03  1.555E+00  8.218E+00  5.547E-02  1.777E+00
   1    4    8     3     4    1.5862E+01  2.2567E-01   1.8364E+01  2.727E+00  0.000E+00  0.000E+00  1.06682E+03  1.364E+00  7.455E+00  6.709E-02  1.682E+00
   1    5    8     3     5    1.8364E+01  1.5790E-01   2.0479E+01  2.273E+00  0.000E+00  0.000E+00  1.06362E+03  1.164E+00  6.655E+00  4.991E-02  1.582E+00
   1    6    8     3     6    2.0479E+01  5.5980E-02   2.1332E+01  9.091E-01  0.000E+00  0.000E+00  1.06158E+03  1.036E+00  6.145E+00  1.844E-02  1.518E+00
   1    5   10     4     1    1.0000E+01  9.1150E-02   1.0392E+01  4.830E-01  0.000E+00  0.000E+00  1.07837E+03  6.460E-01  1.000E+01  2.500E-02  1.215E+00
   1    5    9     4     2    1.0392E+01  1.8340E-01   1.1174E+01  9.659E-01  0.000E+00  0.000E+00  1.07158E+03  6.681E-01  1.000E+01  5.000E-02  1.223E+00
   1    6    8     4     3    1.1174E+01  1.2924E-01   1.1721E+01  6.761E-01  0.000E+00  0.000E+00  1.06387E+03  6.925E-01  1.000E+01  3.500E-02  1.231E+00
   1    6    8     5     1    3.3053E+01  5.0019E-01   3.3379E+01  8.267E-01  0.000E+00  0.000E+00  1.05902E+03  1.022E+00  3.109E+01  1.244E-01  1.341E+00
   1    7    7     5     2    3.3379E+01  6.2996E-01   3.3783E+01  1.033E+00  0.000E+00  0.000E+00  1.05453E+03  1.026E+00  3.129E+01  1.565E-01  1.342E+00
   1    8    7     5     3    3.3783E+01  4.4406E-01   3.4062E+01  7.233E-01  0.000E+00  0.000E+00  1.05028E+03  1.030E+00  3.148E+01  1.102E-01  1.343E+00
   1    8    6     5     4    3.4062E+01  3.1872E-01   3.4260E+01  5.167E-01  0.000E+00  0.000E+00  1.04728E+03  1.032E+00  3.162E+01  7.904E-02  1.344E+00
   1    9    6     6     1    5.2956E+01  2.9581E-01   5.4296E+01  1.636E+00  0.000E+00  0.000E+00  1.04466E+03  1.930E+00  1.200E+01  6.000E-02  1.643E+00
   1   10    7     6     2    5.4296E+01  2.9754E-01   5.5635E+01  1.636E+00  0.000E+00  0.000E+00  1.04014E+03  1.959E+00  1.200E+01  6.000E-02  1.653E+00
   1   11    7     6     3    5.5635E+01  2.9925E-01   5.6972E+01  1.636E+00  0.000E+00  0.000E+00  1.03562E+03  1.987E+00  1.200E+01  6.000E-02  1.662E+00
   1   12    7     6     4    5.6972E+01  3.0094E-01   5.8308E+01  1.636E+00  0.000E+00  0.000E+00  1.03111E+03  2.016E+00  1.200E+01  6.000E-02  1.672E+00
   1   13    7     6     5    5.8308E+01  5.2889E-02   5.8909E+01  6.545E-01  0.000E+00  0.000E+00  1.02794E+03  2.036E+00  1.200E+01  2.400E-02  7.346E-01
   1   14    9     7     1    1.5000E+02  1.4753E+00   1.5006E+02  1.540E+00  0.000E+00  0.000E+00  1.03987E+03  2.291E+00  5.531E+01  5.595E-01  8.790E-01
   1   13    8     7     2    1.5006E+02  2.2800E+00   1.4948E+02  1.694E+00  0.000E+00  0.000E+00  1.03479E+03  2.290E+00  5.531E+01  6.154E-01  1.235E+00
   1   13    7     7     3    1.4948E+02  2.2173E+00   1.4880E+02  1.540E+00  0.000E+00  0.000E+00  1.02971E+03  2.287E+00  5.529E+01  5.593E-01  1.322E+00
   1   13    6     8     1    2.0771E+02  1.9223E+00   2.1399E+02  8.196E+00  0.000E+00  0.000E+00  1.02508E+03  3.200E+00  4.641E+01  4.729E-01  1.355E+00
   1   13    5     8     2    2.1399E+02  1.3413E+00   2.2084E+02  8.196E+00  0.000E+00  0.000E+00  1.01886E+03  3.238E+00  4.694E+01  4.784E-01  9.346E-01
   1   13    4     8     3    2.2084E+02  4.1263E-01   2.2862E+02  8.196E+00  0.000E+00  0.000E+00  1.01265E+03  3.278E+00  4.753E+01  4.844E-01  2.840E-01
   1   13    3     8     4    2.2862E+02 -8.8275E-01   2.3770E+02  8.196E+00  0.000E+00  0.000E+00  1.00645E+03  3.324E+00  4.819E+01  4.911E+00 -5.992E-02
   1   13    2     8     5    2.3770E+02 -8.1267E-01   2.4671E+02  8.196E+00  0.000E+00  0.000E+00  1.00025E+03  3.371E+00  4.888E+01  4.981E+00 -5.438E-02
   1   13    1     8     6    2.4671E+02 -6.2590E-01   2.5226E+02  4.918E+00  0.000E+00  0.000E+00  9.95284E+02  3.409E+00  4.943E+01  3.022E+00 -6.903E-02



 UBDSV3 SAVING "     NETRECHARGE" ON UNIT 100 AT TIME STEP 10, STRESS PERIOD   6
 UBDSV3 SAVING "    NETDISCHARGE" ON UNIT 101 AT TIME STEP 10, STRESS PERIOD   6
 UBDSV3 SAVING "           GW ET" ON UNIT  61 AT TIME STEP 10, STRESS PERIOD   6
 UBDSV3 SAVING "    UZF RECHARGE" ON UNIT  61 AT TIME STEP 10, STRESS PERIOD   6
 UBDSV3 SAVING " SURFACE LEAKAGE" ON UNIT  61 AT TIME STEP 10, STRESS PERIOD   6
 UBDSV3 SAVING "       HORT+DUNN" ON UNIT  61 AT TIME STEP 10, STRESS PERIOD   6
 UBDSV3 SAVING "  STORAGE CHANGE" ON UNIT  61 AT TIME STEP 10, STRESS PERIOD   6


UNSATURATED ZONE PACKAGE VOLUMETRIC BUDGET FOR  TIME STEP    10 STRESS PERIOD    6
  ------------------------------------------------------------------------------



     CUMULATIVE VOLUMES      L**3       RATES FOR THIS TIME STEP      L**3/T
     ------------------                 ------------------------

           IN:                                      IN:
           ---                                      ---
        INFILTRATION =    41928873.5420          INFILTRATION =           2.9000

          OUT:                                     OUT:
          ----                                     ----
              UZF ET =     9396286.8683                UZF ET =           1.1603
        UZF RECHARGE =     7879692.3965          UZF RECHARGE =       0.0000E+00

            IN - OUT =    24652894.2772              IN - OUT =           1.7397

          STORAGE:                                 STORAGE:
          --------                                 --------
      STORAGE CHANGE =    24652889.5984        STORAGE CHANGE =           1.7397

 PERCENT DISCREPANCY IS DIFFERENCE BETWEEN IN-OUT MINUS CHANGE IN STORAGE
 DIVIDED BY THE AVERAGE OF IN AND OUT TIMES 100

 PERCENT DISCREPANCY =           0.00     PERCENT DISCREPANCY =           0.00






1
  VOLUMETRIC BUDGET FOR ENTIRE MODEL AT END OF TIME STEP   10, STRESS PERIOD   6
  ------------------------------------------------------------------------------

     CUMULATIVE VOLUMES      L**3       RATES FOR THIS TIME STEP      L**3/T
     ------------------                 ------------------------

           IN:                                      IN:
           ---                                      ---
             STORAGE =   339187008.0000               STORAGE =          11.2125
       CONSTANT HEAD =           0.0000         CONSTANT HEAD =           0.0000
               WELLS =           0.0000                 WELLS =           0.0000
     HEAD DEP BOUNDS =     4255179.0000       HEAD DEP BOUNDS =           0.2951
      STREAM LEAKAGE =   236095744.0000        STREAM LEAKAGE =          16.9144
        UZF RECHARGE =     7879697.5000          UZF RECHARGE =           0.0000
               GW ET =           0.0000                 GW ET =           0.0000
     SURFACE LEAKAGE =           0.0000       SURFACE LEAKAGE =           0.0000

            TOTAL IN =   587417600.0000              TOTAL IN =          28.4220

          OUT:                                     OUT:
          ----                                     ----
             STORAGE =    35233624.0000               STORAGE =          19.6674
       CONSTANT HEAD =           0.0000         CONSTANT HEAD =           0.0000
               WELLS =   420480000.0000                 WELLS =           0.0000
     HEAD DEP BOUNDS =     4150592.2500       HEAD DEP BOUNDS =           0.2847
      STREAM LEAKAGE =    51167228.0000        STREAM LEAKAGE =           2.3213
        UZF RECHARGE =           0.0000          UZF RECHARGE =           0.0000
               GW ET =    76399720.0000                 GW ET =           6.1482
     SURFACE LEAKAGE =           0.0000       SURFACE LEAKAGE =           0.0000

           TOTAL OUT =   587431168.0000             TOTAL OUT =          28.4216

            IN - OUT =      -13568.0000              IN - OUT =       4.3297E-04

 PERCENT DISCREPANCY =          -0.00     PERCENT DISCREPANCY =           0.00






         TIME SUMMARY AT END OF TIME STEP   10 IN STRESS PERIOD    6
                    SECONDS     MINUTES      HOURS       DAYS        YEARS
                    -----------------------------------------------------------
   TIME STEP LENGTH 1.95033E+05  3250.6      54.176      2.2573     6.18023E-03
 STRESS PERIOD TIME 1.31823E+06  21971.      366.18      15.257     4.17723E-02
         TOTAL TIME 1.44582E+07 2.40970E+05  4016.2      167.34     0.45815    
1
 
 SOLVING FOR HEAD 
                                                   Max.-Head-Change                         Max.-Flux-Residual
  Residual-Control   Outer-Iter.   Inner-Iter.     Column Row Layer    Maximum-Head-Change  Column Row Layer    Maximum-Flux-Residual          L2-NORM 
          0                 1           2             4    9     1       0.1005053359E+00       4    9    1         0.2179125377E+01      0.6315976455E+01
          0                 2           2             4    9     1      -0.9959327350E-02       4    9    1        -0.2179172095E+00      0.6315683836E+00
          0                 3           2             4    9     1       0.8881969043E-03       4    9    1         0.1961250541E-01      0.5683844027E-01
          0                 4           1             4    9     1      -0.7049902603E-04       4    9    1        -0.1570962444E-02      0.4552514968E-02

    ------------------------------------------------
       NWT REQUIRED            4 OUTER ITERATIONS 
       AND A TOTAL OF          7 INNER ITERATIONS.
    ------------------------------------------------

 NO OUTPUT CONTROL FOR STRESS PERIOD    6   TIME STEP   11
 
 SOLVING FOR HEAD 
                                                   Max.-Head-Change                         Max.-Flux-Residual
  Residual-Control   Outer-Iter.   Inner-Iter.     Column Row Layer    Maximum-Head-Change  Column Row Layer    Maximum-Flux-Residual          L2-NORM 
          0                 1           2             4    8     1       0.1082260327E+00       4    9    1         0.2133304664E+01      0.6098617446E+01
          0                 2           2             4    8     1      -0.1072432388E-01       4    9    1        -0.2133362988E+00      0.6098443659E+00
          0                 3           2             4    8     1       0.9564218091E-03       4    9    1         0.1920021199E-01      0.5488425142E-01
          0                 4           1             4    8     1      -0.7591424879E-04       4    9    1        -0.1537937828E-02      0.4396085661E-02

    ------------------------------------------------
       NWT REQUIRED            4 OUTER ITERATIONS 
       AND A TOTAL OF          7 INNER ITERATIONS.
    ------------------------------------------------

 NO OUTPUT CONTROL FOR STRESS PERIOD    6   TIME STEP   12
 
 SOLVING FOR HEAD 
                                                   Max.-Head-Change                         Max.-Flux-Residual
  Residual-Control   Outer-Iter.   Inner-Iter.     Column Row Layer    Maximum-Head-Change  Column Row Layer    Maximum-Flux-Residual          L2-NORM 
          0                 1           2             4    8     1       0.1165852553E+00       4    8    1         0.2088351119E+01      0.5879069668E+01
          0                 2           2             4    8     1      -0.1155270867E-01       4    8    1        -0.2088387969E+00      0.5878992388E+00
          0                 3           2             4    8     1       0.1030298689E-02       4    8    1         0.1879545788E-01      0.5290990804E-01
          0                 4           1             4    8     1      -0.8177809562E-04       4    8    1        -0.1505516846E-02      0.4238028940E-02

    ------------------------------------------------
       NWT REQUIRED            4 OUTER ITERATIONS 
       AND A TOTAL OF          7 INNER ITERATIONS.
    ------------------------------------------------

 NO OUTPUT CONTROL FOR STRESS PERIOD    6   TIME STEP   13
 
 SOLVING FOR HEAD 
                                                   Max.-Head-Change                         Max.-Flux-Residual
  Residual-Control   Outer-Iter.   Inner-Iter.     Column Row Layer    Maximum-Head-Change  Column Row Layer    Maximum-Flux-Residual          L2-NORM 
          0                 1           2             4    8     1       0.1252238890E+00       4    8    1         0.2045139751E+01      0.5657837077E+01
          0                 2           2             4    8     1      -0.1240880490E-01       4    8    1        -0.2045191004E+00      0.5657833037E+00
          0                 3           2             4    8     1       0.1106646705E-02       4    8    1         0.1840667099E-01      0.5091995152E-01
          0                 4           1             4    8     1      -0.8783808630E-04       4    8    1        -0.1474375124E-02      0.4078647390E-02

    ------------------------------------------------
       NWT REQUIRED            4 OUTER ITERATIONS 
       AND A TOTAL OF          7 INNER ITERATIONS.
    ------------------------------------------------

 NO OUTPUT CONTROL FOR STRESS PERIOD    6   TIME STEP   14
 
 SOLVING FOR HEAD 
                                                   Max.-Head-Change                         Max.-Flux-Residual
  Residual-Control   Outer-Iter.   Inner-Iter.     Column Row Layer    Maximum-Head-Change  Column Row Layer    Maximum-Flux-Residual          L2-NORM 
          0                 1           2             4    8     1       0.1340699514E+00       4    8    1         0.1996979476E+01      0.5435388691E+01
          0                 2           2             4    8     1      -0.1328548628E-01       4    8    1        -0.1997048342E+00      0.5435437379E+00
          0                 3           2             4    8     1       0.1184830250E-02       4    8    1         0.1797336968E-01      0.4891867585E-01
          0                 4           1             4    8     1      -0.9404376934E-04       4    8    1        -0.1439667809E-02      0.3918392223E-02

    ------------------------------------------------
       NWT REQUIRED            4 OUTER ITERATIONS 
       AND A TOTAL OF          7 INNER ITERATIONS.
    ------------------------------------------------

 OUTPUT CONTROL FOR STRESS PERIOD    6   TIME STEP   15
    PRINT BUDGET
    PRINT HEAD FOR ALL LAYERS
    SAVE HEAD FOR ALL LAYERS
    SAVE BUDGET

  HEAD DEP BOUNDS   PERIOD    6   STEP    15
 BOUNDARY      1   LAYER   1   ROW    13   COL     1   RATE   -0.285444    
 BOUNDARY      2   LAYER   1   ROW    14   COL     9   RATE    0.295175    



 STREAM LISTING     PERIOD      6   STEP       15

 LAYER ROW COL. STREAM  RCH.  FLOW INTO     FLOW TO   FLOW OUT OF   OVRLND.     DIRECT     STREAM       STREAM     STREAM     STREAM   STREAMBED  STREAMBED
                SEG.NO.  NO.  STRM. RCH.    AQUIFER    STRM. RCH.    RUNOFF     PRECIP       ET          HEAD       DEPTH      WIDTH   CONDCTNC.   GRADIENT

   1    1    1     1     1    2.5000E+01  2.4674E-01   2.5446E+01  6.931E-01  0.000E+00  0.000E+00  1.09423E+03  1.183E+00  1.311E+01  5.898E-02  1.394E+00
   1    2    2     1     2    2.5446E+01  3.8786E-01   2.6137E+01  1.078E+00  0.000E+00  0.000E+00  1.08925E+03  1.192E+00  1.322E+01  9.253E-02  1.397E+00
   1    3    3     1     3    2.6137E+01  3.3630E-01   2.6724E+01  9.241E-01  0.000E+00  0.000E+00  1.08362E+03  1.201E+00  1.334E+01  8.005E-02  1.400E+00
   1    3    4     1     4    2.6724E+01  3.1418E-01   2.7265E+01  8.548E-01  0.000E+00  0.000E+00  1.07862E+03  1.209E+00  1.345E+01  7.464E-02  1.403E+00
   1    4    5     2     1    1.7265E+01  3.0989E-01   1.7617E+01  6.623E-01  0.000E+00  0.000E+00  1.07291E+03  9.729E-01  1.200E+01  7.800E-02  1.324E+00
   1    5    6     2     2    1.7617E+01  2.3900E-01   1.7888E+01  5.094E-01  0.000E+00  0.000E+00  1.06749E+03  9.833E-01  1.200E+01  6.000E-02  1.328E+00
   1    6    6     2     3    1.7888E+01  2.3954E-01   1.8158E+01  5.094E-01  0.000E+00  0.000E+00  1.06278E+03  9.923E-01  1.200E+01  6.000E-02  1.331E+00
   1    7    6     2     4    1.8158E+01  2.4007E-01   1.8427E+01  5.094E-01  0.000E+00  0.000E+00  1.05808E+03  1.001E+00  1.200E+01  6.000E-02  1.334E+00
   1    8    6     2     5    1.8427E+01  2.4060E-01   1.8696E+01  5.094E-01  0.000E+00  0.000E+00  1.05337E+03  1.010E+00  1.200E+01  6.000E-02  1.337E+00
   1    3    5     3     1    1.0000E+01  2.8252E-01   1.1990E+01  2.273E+00  0.000E+00  0.000E+00  1.07555E+03  1.909E+00  9.636E+00  7.227E-02  1.955E+00
   1    3    6     3     2    1.1990E+01  2.4905E-01   1.4014E+01  2.273E+00  0.000E+00  0.000E+00  1.07264E+03  1.727E+00  8.909E+00  6.682E-02  1.864E+00
   1    3    7     3     3    1.4014E+01  1.9718E-01   1.5862E+01  2.045E+00  0.000E+00  0.000E+00  1.06987E+03  1.555E+00  8.218E+00  5.547E-02  1.777E+00
   1    4    8     3     4    1.5862E+01  2.2567E-01   1.8364E+01  2.727E+00  0.000E+00  0.000E+00  1.06682E+03  1.364E+00  7.455E+00  6.709E-02  1.682E+00
   1    5    8     3     5    1.8364E+01  1.5790E-01   2.0479E+01  2.273E+00  0.000E+00  0.000E+00  1.06362E+03  1.164E+00  6.655E+00  4.991E-02  1.582E+00
   1    6    8     3     6    2.0479E+01  5.5980E-02   2.1332E+01  9.091E-01  0.000E+00  0.000E+00  1.06158E+03  1.036E+00  6.145E+00  1.844E-02  1.518E+00
   1    5   10     4     1    1.0000E+01  9.1150E-02   1.0392E+01  4.830E-01  0.000E+00  0.000E+00  1.07837E+03  6.460E-01  1.000E+01  2.500E-02  1.215E+00
   1    5    9     4     2    1.0392E+01  1.8340E-01   1.1174E+01  9.659E-01  0.000E+00  0.000E+00  1.07158E+03  6.681E-01  1.000E+01  5.000E-02  1.223E+00
   1    6    8     4     3    1.1174E+01  1.2924E-01   1.1721E+01  6.761E-01  0.000E+00  0.000E+00  1.06387E+03  6.925E-01  1.000E+01  3.500E-02  1.231E+00
   1    6    8     5     1    3.3053E+01  5.0019E-01   3.3379E+01  8.267E-01  0.000E+00  0.000E+00  1.05902E+03  1.022E+00  3.109E+01  1.244E-01  1.341E+00
   1    7    7     5     2    3.3379E+01  6.2996E-01   3.3783E+01  1.033E+00  0.000E+00  0.000E+00  1.05453E+03  1.026E+00  3.129E+01  1.565E-01  1.342E+00
   1    8    7     5     3    3.3783E+01  4.4406E-01   3.4062E+01  7.233E-01  0.000E+00  0.000E+00  1.05028E+03  1.030E+00  3.148E+01  1.102E-01  1.343E+00
   1    8    6     5     4    3.4062E+01  3.1872E-01   3.4260E+01  5.167E-01  0.000E+00  0.000E+00  1.04728E+03  1.032E+00  3.162E+01  7.904E-02  1.344E+00
   1    9    6     6     1    5.2956E+01  2.9581E-01   5.4296E+01  1.636E+00  0.000E+00  0.000E+00  1.04466E+03  1.930E+00  1.200E+01  6.000E-02  1.643E+00
   1   10    7     6     2    5.4296E+01  2.9754E-01   5.5635E+01  1.636E+00  0.000E+00  0.000E+00  1.04014E+03  1.959E+00  1.200E+01  6.000E-02  1.653E+00
   1   11    7     6     3    5.5635E+01  2.9925E-01   5.6972E+01  1.636E+00  0.000E+00  0.000E+00  1.03562E+03  1.987E+00  1.200E+01  6.000E-02  1.662E+00
   1   12    7     6     4    5.6972E+01  3.0094E-01   5.8308E+01  1.636E+00  0.000E+00  0.000E+00  1.03111E+03  2.016E+00  1.200E+01  6.000E-02  1.672E+00
   1   13    7     6     5    5.8308E+01  5.3338E-02   5.8909E+01  6.545E-01  0.000E+00  0.000E+00  1.02794E+03  2.036E+00  1.200E+01  2.400E-02  7.408E-01
   1   14    9     7     1    1.5000E+02  1.4770E+00   1.5006E+02  1.540E+00  0.000E+00  0.000E+00  1.03987E+03  2.291E+00  5.531E+01  5.595E-01  8.800E-01
   1   13    8     7     2    1.5006E+02  2.2841E+00   1.4947E+02  1.694E+00  0.000E+00  0.000E+00  1.03479E+03  2.290E+00  5.531E+01  6.154E-01  1.237E+00
   1   13    7     7     3    1.4947E+02  2.2278E+00   1.4879E+02  1.540E+00  0.000E+00  0.000E+00  1.02971E+03  2.287E+00  5.529E+01  5.592E-01  1.328E+00
   1   13    6     8     1    2.0770E+02  1.9364E+00   2.1396E+02  8.196E+00  0.000E+00  0.000E+00  1.02508E+03  3.200E+00  4.641E+01  4.729E-01  1.365E+00
   1   13    5     8     2    2.1396E+02  1.3601E+00   2.2079E+02  8.196E+00  0.000E+00  0.000E+00  1.01886E+03  3.237E+00  4.694E+01  4.783E-01  9.478E-01
   1   13    4     8     3    2.2079E+02  4.2892E-01   2.2856E+02  8.196E+00  0.000E+00  0.000E+00  1.01265E+03  3.278E+00  4.753E+01  4.843E-01  2.952E-01
   1   13    3     8     4    2.2856E+02 -9.2936E-01   2.3768E+02  8.196E+00  0.000E+00  0.000E+00  1.00645E+03  3.323E+00  4.819E+01  4.911E+00 -6.309E-02
   1   13    2     8     5    2.3768E+02 -9.2664E-01   2.4681E+02  8.196E+00  0.000E+00  0.000E+00  1.00025E+03  3.372E+00  4.889E+01  4.982E+00 -6.200E-02
   1   13    1     8     6    2.4681E+02 -6.8652E-01   2.5241E+02  4.918E+00  0.000E+00  0.000E+00  9.95285E+02  3.410E+00  4.944E+01  3.023E+00 -7.570E-02



 UBDSV3 SAVING "     NETRECHARGE" ON UNIT 100 AT TIME STEP 15, STRESS PERIOD   6
 UBDSV3 SAVING "    NETDISCHARGE" ON UNIT 101 AT TIME STEP 15, STRESS PERIOD   6
 UBDSV3 SAVING "           GW ET" ON UNIT  61 AT TIME STEP 15, STRESS PERIOD   6
 UBDSV3 SAVING "    UZF RECHARGE" ON UNIT  61 AT TIME STEP 15, STRESS PERIOD   6
 UBDSV3 SAVING " SURFACE LEAKAGE" ON UNIT  61 AT TIME STEP 15, STRESS PERIOD   6
 UBDSV3 SAVING "       HORT+DUNN" ON UNIT  61 AT TIME STEP 15, STRESS PERIOD   6
 UBDSV3 SAVING "  STORAGE CHANGE" ON UNIT  61 AT TIME STEP 15, STRESS PERIOD   6


UNSATURATED ZONE PACKAGE VOLUMETRIC BUDGET FOR  TIME STEP    15 STRESS PERIOD    6
  ------------------------------------------------------------------------------



     CUMULATIVE VOLUMES      L**3       RATES FOR THIS TIME STEP      L**3/T
     ------------------                 ------------------------

           IN:                                      IN:
           ---                                      ---
        INFILTRATION =    45727195.8936          INFILTRATION =           2.9000

          OUT:                                     OUT:
          ----                                     ----
              UZF ET =    10927708.2897                UZF ET =           1.1749
        UZF RECHARGE =     7879692.3965          UZF RECHARGE =       0.0000E+00

            IN - OUT =    26919795.2073              IN - OUT =           1.7251

          STORAGE:                                 STORAGE:
          --------                                 --------
      STORAGE CHANGE =    26919790.5749        STORAGE CHANGE =           1.7251

 PERCENT DISCREPANCY IS DIFFERENCE BETWEEN IN-OUT MINUS CHANGE IN STORAGE
 DIVIDED BY THE AVERAGE OF IN AND OUT TIMES 100

 PERCENT DISCREPANCY =           0.00     PERCENT DISCREPANCY =           0.00






1
              HEAD IN LAYER   1 AT END OF TIME STEP  15 IN STRESS PERIOD    6
  ---------------------------------------------------------------------------

           1       2       3       4       5       6       7       8       9      10
 ...................................................................................
   1  1032.61 1029.42 6999.00 6999.00 6999.00 6999.00 6999.00 6999.00 6999.00 6999.00
   2  1029.73 1025.46 1023.52 6999.00 6999.00 1022.13 1022.41 1022.57 6999.00 6999.00
   3  6999.00 1022.52 1021.38 1020.38 1020.38 1020.92 1021.64 1021.87 6999.00 6999.00
   4  1020.35 1020.46 1019.65 1018.61 1018.47 1018.70 1019.68 1021.22 1021.15 6999.00
   5  1019.47 1018.72 1017.53 1016.47 1016.78 1017.71 1018.59 1019.61 1020.56 1021.38
   6  1018.55 1017.39 1015.46 1014.17 1014.81 1016.55 1018.02 1019.29 1020.08 1021.31
   7  1017.89 1016.29 1014.02 1012.51 1013.44 1015.64 1017.60 1018.65 1019.81 6999.00
   8  6999.00 1015.32 1013.20 1011.62 1012.73 1015.09 1017.04 1018.53 1020.08 6999.00
   9  6999.00 1014.31 1012.69 1011.50 1012.67 1014.93 1016.82 1018.72 1020.93 6999.00
  10  6999.00 1013.14 1012.45 1012.09 1013.31 1015.52 1017.50 1019.62 1022.14 1023.00
  11  6999.00 1011.10 1011.84 1012.95 1014.54 1016.87 1019.13 1021.75 1024.68 6999.00
  12  1001.21 1006.35 1009.88 1012.65 1015.40 1018.60 1021.54 1025.86 1029.44 6999.00
  13   995.51 1000.43 1006.64 1011.77 1016.02 1020.98 1025.72 1031.08 1034.05 6999.00
  14  6999.00 1005.77 1008.60 1012.77 1016.94 1021.36 1026.52 1032.48 1037.23 6999.00
  15  6999.00 6999.00 1012.16 1014.64 1017.77 1020.58 6999.00 6999.00 6999.00 6999.00

 HEAD WILL BE SAVED ON UNIT   58 AT END OF TIME STEP   15, STRESS PERIOD    6
1
  VOLUMETRIC BUDGET FOR ENTIRE MODEL AT END OF TIME STEP   15, STRESS PERIOD   6
  ------------------------------------------------------------------------------

     CUMULATIVE VOLUMES      L**3       RATES FOR THIS TIME STEP      L**3/T
     ------------------                 ------------------------

           IN:                                      IN:
           ---                                      ---
             STORAGE =   351711776.0000               STORAGE =           8.8363
       CONSTANT HEAD =           0.0000         CONSTANT HEAD =           0.0000
               WELLS =           0.0000                 WELLS =           0.0000
     HEAD DEP BOUNDS =     4641732.0000       HEAD DEP BOUNDS =           0.2952
      STREAM LEAKAGE =   258301904.0000        STREAM LEAKAGE =          16.9802
        UZF RECHARGE =     7879697.5000          UZF RECHARGE =           0.0000
               GW ET =           0.0000                 GW ET =           0.0000
     SURFACE LEAKAGE =           0.0000       SURFACE LEAKAGE =           0.0000

            TOTAL IN =   622535104.0000              TOTAL IN =          26.1117

          OUT:                                     OUT:
          ----                                     ----
             STORAGE =    58680028.0000               STORAGE =          17.1364
       CONSTANT HEAD =           0.0000         CONSTANT HEAD =           0.0000
               WELLS =   420480000.0000                 WELLS =           0.0000
     HEAD DEP BOUNDS =     4524108.5000       HEAD DEP BOUNDS =           0.2854
      STREAM LEAKAGE =    54412536.0000        STREAM LEAKAGE =           2.5425
        UZF RECHARGE =           0.0000          UZF RECHARGE =           0.0000
               GW ET =    84451424.0000                 GW ET =           6.1469
     SURFACE LEAKAGE =           0.0000       SURFACE LEAKAGE =           0.0000

           TOTAL OUT =   622548096.0000             TOTAL OUT =          26.1113

            IN - OUT =      -12992.0000              IN - OUT =       4.2725E-04

 PERCENT DISCREPANCY =          -0.00     PERCENT DISCREPANCY =           0.00






         TIME SUMMARY AT END OF TIME STEP   15 IN STRESS PERIOD    6
                    SECONDS     MINUTES      HOURS       DAYS        YEARS
                    -----------------------------------------------------------
   TIME STEP LENGTH 3.14103E+05  5235.0      87.251      3.6354     9.95332E-03
 STRESS PERIOD TIME 2.62800E+06  43800.      730.00      30.417     8.32763E-02
         TOTAL TIME 1.57680E+07 2.62800E+05  4380.0      182.50     0.49966    
1
1
                            STRESS PERIOD NO.    7, LENGTH =   2628000.    
                            -----------------------------------------------

                              NUMBER OF TIME STEPS =    15

                               MULTIPLIER FOR DELT =     1.100

                            INITIAL TIME STEP SIZE =   82713.07    

 WELL NO.  LAYER   ROW   COL   STRESS RATE         
 --------------------------------------------------
      1      1      6      4      -2.000    
      2      1      6      5      -2.000    
      3      1      7      4      -2.000    
      4      1      7      5      -2.000    
      5      1      8      4      -2.000    
      6      1      8      5      -2.000    
      7      1      9      4      -2.000    
      8      1      9      5      -2.000    
      9      1     10      4      -2.000    
     10      1     10      5      -2.000    

     10 WELLS

 REUSING NON-PARAMETER GHB CELLS FROM LAST STRESS PERIOD

      2 GHB CELLS

 REUSING STREAM SEGMENT DATA FROM LAST STRESS PERIOD



            AREAL INFILTRATION RATE
 READING ON UNIT   19 WITH FORMAT: (10F4.0)            

            1           2           3           4           5           6           7           8           9          10
 ........................................................................................................................
   1   3.0000E-09  6.0000E-09   0.000       0.000       0.000       0.000       0.000       0.000       0.000       0.000    
   2   6.0000E-09  3.0000E-09  6.0000E-09   0.000       0.000      2.4000E-08  2.4000E-08  1.5000E-08   0.000       0.000    
   3    0.000      1.5000E-08  3.0000E-09  3.0000E-09  2.4000E-08  2.4000E-08  1.5000E-08  1.5000E-08   0.000       0.000    
   4   2.4000E-08  1.5000E-08  3.0000E-09  3.0000E-09  3.0000E-09  3.0000E-09  3.0000E-09  3.0000E-09  6.0000E-09   0.000    
   5   2.4000E-08  1.5000E-08  3.0000E-09  3.0000E-09  3.0000E-09  3.0000E-09  3.0000E-09  3.0000E-09  3.0000E-09  3.0000E-09
   6   2.4000E-08  1.5000E-08  1.5000E-08  6.0000E-09  6.0000E-09  3.0000E-09  3.0000E-09  3.0000E-09  3.0000E-09  1.5000E-08
   7   2.4000E-08  1.5000E-08  1.5000E-08  6.0000E-09  6.0000E-09  3.0000E-09  3.0000E-09  6.0000E-09  6.0000E-09   0.000    
   8    0.000      1.5000E-08  1.5000E-08  6.0000E-09  6.0000E-09  3.0000E-09  3.0000E-09  6.0000E-09  1.5000E-08   0.000    
   9    0.000      1.5000E-08  1.5000E-08  6.0000E-09  6.0000E-09  3.0000E-09  3.0000E-09  6.0000E-09  1.5000E-08   0.000    
  10    0.000      1.5000E-08  1.5000E-08  6.0000E-09  6.0000E-09  3.0000E-09  3.0000E-09  6.0000E-09  1.5000E-08  2.4000E-08
  11    0.000      3.0000E-09  3.0000E-09  3.0000E-09  3.0000E-09  3.0000E-09  3.0000E-09  6.0000E-09  1.5000E-08   0.000    
  12   3.0000E-09  3.0000E-09  3.0000E-09  3.0000E-09  3.0000E-09  3.0000E-09  3.0000E-09  3.0000E-09  6.0000E-09   0.000    
  13   3.0000E-09  3.0000E-09  6.0000E-09  6.0000E-09  6.0000E-09  6.0000E-09  6.0000E-09  3.0000E-09  3.0000E-09   0.000    
  14    0.000      6.0000E-09  1.5000E-08  1.5000E-08  1.5000E-08  1.5000E-08  1.5000E-08  6.0000E-09  3.0000E-09   0.000    
  15    0.000       0.000      2.4000E-08  2.4000E-08  2.4000E-08  2.4000E-08   0.000       0.000       0.000       0.000    

USING ET RATE FROM PREVIOUS STRESS PERIOD. CURRENT PERIOD IS:       7

 USING ET EXTINCTION DEPTH FROM PREVIOUS STRESS PERIOD. CURRENT PERIOD IS:       7

 USING EXTINCTION WATER CONTENT FROM PREVIOUS STRESS PERIOD. CURRENT PERIOD IS:       7
 
 SOLVING FOR HEAD 
                                                   Max.-Head-Change                         Max.-Flux-Residual
  Residual-Control   Outer-Iter.   Inner-Iter.     Column Row Layer    Maximum-Head-Change  Column Row Layer    Maximum-Flux-Residual          L2-NORM 
          0                 1           2             2   13     1      -0.1938154786E-01       2   13    1        -0.1152137434E+01      0.2757959782E+01
          0                 2           2             2   13     1       0.1868723044E-02       2   13    1         0.1120931329E+00      0.2733778499E+00
          0                 3           2             2   13     1      -0.1616397314E-03       2   13    1        -0.9783618305E-02      0.2437247150E-01
          0                 4           1             2   13     1       0.1239110448E-04       3   13    1         0.7585661460E-03      0.1932060712E-02

    ------------------------------------------------
       NWT REQUIRED            4 OUTER ITERATIONS 
       AND A TOTAL OF          7 INNER ITERATIONS.
    ------------------------------------------------

 NO OUTPUT CONTROL FOR STRESS PERIOD    7   TIME STEP    1
 
 SOLVING FOR HEAD 
                                                   Max.-Head-Change                         Max.-Flux-Residual
  Residual-Control   Outer-Iter.   Inner-Iter.     Column Row Layer    Maximum-Head-Change  Column Row Layer    Maximum-Flux-Residual          L2-NORM 
          0                 1           2             2   13     1      -0.1963195143E-01       2   13    1        -0.1068734120E+01      0.2641206247E+01
          0                 2           2             2   13     1       0.1887838135E-02       2   13    1         0.1037002702E+00      0.2617176088E+00
          0                 3           2             2   13     1      -0.1628132880E-03       2   13    1        -0.9024286121E-02      0.2332562845E-01
          0                 4           1             2   13     1       0.1244207821E-04       2   13    1         0.6958502545E-03      0.1848385559E-02

    ------------------------------------------------
       NWT REQUIRED            4 OUTER ITERATIONS 
       AND A TOTAL OF          7 INNER ITERATIONS.
    ------------------------------------------------

 NO OUTPUT CONTROL FOR STRESS PERIOD    7   TIME STEP    2
 
 SOLVING FOR HEAD 
                                                   Max.-Head-Change                         Max.-Flux-Residual
  Residual-Control   Outer-Iter.   Inner-Iter.     Column Row Layer    Maximum-Head-Change  Column Row Layer    Maximum-Flux-Residual          L2-NORM 
          0                 1           2             2   13     1      -0.1973306534E-01       2   13    1        -0.9843896021E+00      0.2525530019E+01
          0                 2           2             2   13     1       0.1891985868E-02       2   13    1         0.9523310792E-01      0.2501897143E+00
          0                 3           2             2   13     1      -0.1626309984E-03       2   13    1        -0.8259804451E-02      0.2229252256E-01
          0                 4           1             2   13     1       0.1239806877E-04       2   13    1         0.6354120478E-03      0.1764355010E-02

    ------------------------------------------------
       NWT REQUIRED            4 OUTER ITERATIONS 
       AND A TOTAL OF          7 INNER ITERATIONS.
    ------------------------------------------------

 NO OUTPUT CONTROL FOR STRESS PERIOD    7   TIME STEP    3
 
 SOLVING FOR HEAD 
                                                   Max.-Head-Change                         Max.-Flux-Residual
  Residual-Control   Outer-Iter.   Inner-Iter.     Column Row Layer    Maximum-Head-Change  Column Row Layer    Maximum-Flux-Residual          L2-NORM 
          0                 1           2             2   13     1      -0.1966905725E-01       2   13    1        -0.8997374436E+00      0.2412050778E+01
          0                 2           2             2   13     1       0.1879761985E-02       2   13    1         0.8675982040E-01      0.2389112796E+00
          0                 3           2             2   13     1      -0.1609920949E-03       2   13    1        -0.7497209587E-02      0.2128602658E-01
          0                 4           1             2   13     1       0.1220612722E-04       2   13    1         0.5734977367E-03      0.1686815375E-02

    ------------------------------------------------
       NWT REQUIRED            4 OUTER ITERATIONS 
       AND A TOTAL OF          7 INNER ITERATIONS.
    ------------------------------------------------

 NO OUTPUT CONTROL FOR STRESS PERIOD    7   TIME STEP    4
 
 SOLVING FOR HEAD 
                                                   Max.-Head-Change                         Max.-Flux-Residual
  Residual-Control   Outer-Iter.   Inner-Iter.     Column Row Layer    Maximum-Head-Change  Column Row Layer    Maximum-Flux-Residual          L2-NORM 
          0                 1           2             2   13     1      -0.1942753948E-01       2   13    1        -0.8154932329E+00      0.2301926125E+01
          0                 2           2             2   13     1       0.1850025433E-02       2   13    1         0.7835133746E-01      0.2279946687E+00
          0                 3           2             2   13     1      -0.1577859650E-03       2   13    1        -0.6742135512E-02      0.2031286602E-01
          0                 4           1             2   13     1       0.1190408366E-04       2   13    1         0.5131839034E-03      0.1609322013E-02

    ------------------------------------------------
       NWT REQUIRED            4 OUTER ITERATIONS 
       AND A TOTAL OF          7 INNER ITERATIONS.
    ------------------------------------------------

 OUTPUT CONTROL FOR STRESS PERIOD    7   TIME STEP    5
    PRINT BUDGET
    SAVE BUDGET

            WELLS   PERIOD    7   STEP   5
 WELL      1   LAYER   1   ROW     6   COL     4   RATE    -2.00000    
 WELL      2   LAYER   1   ROW     6   COL     5   RATE    -2.00000    
 WELL      3   LAYER   1   ROW     7   COL     4   RATE    -2.00000    
 WELL      4   LAYER   1   ROW     7   COL     5   RATE    -2.00000    
 WELL      5   LAYER   1   ROW     8   COL     4   RATE    -2.00000    
 WELL      6   LAYER   1   ROW     8   COL     5   RATE    -2.00000    
 WELL      7   LAYER   1   ROW     9   COL     4   RATE    -2.00000    
 WELL      8   LAYER   1   ROW     9   COL     5   RATE    -2.00000    
 WELL      9   LAYER   1   ROW    10   COL     4   RATE    -2.00000    
 WELL     10   LAYER   1   ROW    10   COL     5   RATE    -2.00000    

  HEAD DEP BOUNDS   PERIOD    7   STEP     5
 BOUNDARY      1   LAYER   1   ROW    13   COL     1   RATE   -0.283115    
 BOUNDARY      2   LAYER   1   ROW    14   COL     9   RATE    0.295224    



 STREAM LISTING     PERIOD      7   STEP        5

 LAYER ROW COL. STREAM  RCH.  FLOW INTO     FLOW TO   FLOW OUT OF   OVRLND.     DIRECT     STREAM       STREAM     STREAM     STREAM   STREAMBED  STREAMBED
                SEG.NO.  NO.  STRM. RCH.    AQUIFER    STRM. RCH.    RUNOFF     PRECIP       ET          HEAD       DEPTH      WIDTH   CONDCTNC.   GRADIENT

   1    1    1     1     1    2.5000E+01  2.4557E-01   2.4935E+01  1.806E-01  0.000E+00  0.000E+00  1.09423E+03  1.180E+00  1.306E+01  5.875E-02  1.393E+00
   1    2    2     1     2    2.4935E+01  3.8140E-01   2.4835E+01  2.809E-01  0.000E+00  0.000E+00  1.08924E+03  1.178E+00  1.304E+01  9.128E-02  1.393E+00
   1    3    3     1     3    2.4835E+01  3.2634E-01   2.4749E+01  2.408E-01  0.000E+00  0.000E+00  1.08360E+03  1.177E+00  1.302E+01  7.813E-02  1.392E+00
   1    3    4     1     4    2.4749E+01  3.0139E-01   2.4670E+01  2.227E-01  0.000E+00  0.000E+00  1.07858E+03  1.176E+00  1.300E+01  7.218E-02  1.392E+00
   1    4    5     2     1    1.4670E+01  3.0219E-01   1.4515E+01  1.472E-01  0.000E+00  0.000E+00  1.07281E+03  8.742E-01  1.200E+01  7.800E-02  1.291E+00
   1    5    6     2     2    1.4515E+01  2.3216E-01   1.4396E+01  1.132E-01  0.000E+00  0.000E+00  1.06738E+03  8.693E-01  1.200E+01  6.000E-02  1.290E+00
   1    6    6     2     3    1.4396E+01  2.3190E-01   1.4278E+01  1.132E-01  0.000E+00  0.000E+00  1.06266E+03  8.650E-01  1.200E+01  6.000E-02  1.288E+00
   1    7    6     2     4    1.4278E+01  2.3164E-01   1.4159E+01  1.132E-01  0.000E+00  0.000E+00  1.05794E+03  8.607E-01  1.200E+01  6.000E-02  1.287E+00
   1    8    6     2     5    1.4159E+01  2.3138E-01   1.4041E+01  1.132E-01  0.000E+00  0.000E+00  1.05321E+03  8.564E-01  1.200E+01  6.000E-02  1.285E+00
   1    3    5     3     1    1.0000E+01  2.8252E-01   1.0367E+01  6.500E-01  0.000E+00  0.000E+00  1.07555E+03  1.909E+00  9.636E+00  7.227E-02  1.955E+00
   1    3    6     3     2    1.0367E+01  2.4905E-01   1.0768E+01  6.500E-01  0.000E+00  0.000E+00  1.07264E+03  1.727E+00  8.909E+00  6.682E-02  1.864E+00
   1    3    7     3     3    1.0768E+01  1.9718E-01   1.1156E+01  5.850E-01  0.000E+00  0.000E+00  1.06987E+03  1.555E+00  8.218E+00  5.547E-02  1.777E+00
   1    4    8     3     4    1.1156E+01  2.2567E-01   1.1711E+01  7.800E-01  0.000E+00  0.000E+00  1.06682E+03  1.364E+00  7.455E+00  6.709E-02  1.682E+00
   1    5    8     3     5    1.1711E+01  1.5790E-01   1.2203E+01  6.500E-01  0.000E+00  0.000E+00  1.06362E+03  1.164E+00  6.655E+00  4.991E-02  1.582E+00
   1    6    8     3     6    1.2203E+01  5.5980E-02   1.2407E+01  2.600E-01  0.000E+00  0.000E+00  1.06158E+03  1.036E+00  6.145E+00  1.844E-02  1.518E+00
   1    5   10     4     1    1.0000E+01  9.0979E-02   1.0034E+01  1.250E-01  0.000E+00  0.000E+00  1.07837E+03  6.392E-01  1.000E+01  2.500E-02  1.213E+00
   1    5    9     4     2    1.0034E+01  1.8206E-01   1.0102E+01  2.500E-01  0.000E+00  0.000E+00  1.07155E+03  6.411E-01  1.000E+01  5.000E-02  1.214E+00
   1    6    8     4     3    1.0102E+01  1.2752E-01   1.0149E+01  1.750E-01  0.000E+00  0.000E+00  1.06383E+03  6.433E-01  1.000E+01  3.500E-02  1.214E+00
   1    6    8     5     1    2.2556E+01  3.8282E-01   2.2393E+01  2.200E-01  0.000E+00  0.000E+00  1.05889E+03  8.917E-01  2.459E+01  9.837E-02  1.297E+00
   1    7    7     5     2    2.2393E+01  4.7589E-01   2.2192E+01  2.750E-01  0.000E+00  0.000E+00  1.05439E+03  8.892E-01  2.447E+01  1.224E-01  1.296E+00
   1    8    7     5     3    2.2192E+01  3.3140E-01   2.2054E+01  1.925E-01  0.000E+00  0.000E+00  1.05014E+03  8.868E-01  2.436E+01  8.526E-02  1.296E+00
   1    8    6     5     4    2.2054E+01  2.3585E-01   2.1955E+01  1.375E-01  0.000E+00  0.000E+00  1.04714E+03  8.851E-01  2.428E+01  6.071E-02  1.295E+00
   1    9    6     6     1    3.5996E+01  2.7131E-01   3.6168E+01  4.432E-01  0.000E+00  0.000E+00  1.04425E+03  1.522E+00  1.200E+01  6.000E-02  1.507E+00
   1   10    7     6     2    3.6168E+01  2.7157E-01   3.6340E+01  4.432E-01  0.000E+00  0.000E+00  1.03971E+03  1.526E+00  1.200E+01  6.000E-02  1.509E+00
   1   11    7     6     3    3.6340E+01  2.7183E-01   3.6511E+01  4.432E-01  0.000E+00  0.000E+00  1.03517E+03  1.530E+00  1.200E+01  6.000E-02  1.510E+00
   1   12    7     6     4    3.6511E+01  2.7208E-01   3.6682E+01  4.432E-01  0.000E+00  0.000E+00  1.03063E+03  1.535E+00  1.200E+01  6.000E-02  1.512E+00
   1   13    7     6     5    3.6682E+01  4.1647E-02   3.6818E+01  1.773E-01  0.000E+00  0.000E+00  1.02745E+03  1.539E+00  1.200E+01  2.400E-02  5.784E-01
   1   14    9     7     1    1.5000E+02  1.4756E+00   1.4894E+02  4.113E-01  0.000E+00  0.000E+00  1.03987E+03  2.288E+00  5.530E+01  5.593E-01  8.794E-01
   1   13    8     7     2    1.4894E+02  2.2787E+00   1.4711E+02  4.524E-01  0.000E+00  0.000E+00  1.03478E+03  2.281E+00  5.526E+01  6.149E-01  1.235E+00
   1   13    7     7     3    1.4711E+02  2.2216E+00   1.4530E+02  4.113E-01  0.000E+00  0.000E+00  1.02969E+03  2.271E+00  5.522E+01  5.585E-01  1.326E+00
   1   13    6     8     1    1.8212E+02  1.7707E+00   1.8264E+02  2.290E+00  0.000E+00  0.000E+00  1.02491E+03  3.031E+00  4.395E+01  4.479E-01  1.318E+00
   1   13    5     8     2    1.8264E+02  1.1989E+00   1.8373E+02  2.290E+00  0.000E+00  0.000E+00  1.01866E+03  3.036E+00  4.402E+01  4.486E-01  8.909E-01
   1   13    4     8     3    1.8373E+02  3.0633E-01   1.8571E+02  2.290E+00  0.000E+00  0.000E+00  1.01242E+03  3.046E+00  4.416E+01  4.500E-01  2.269E-01
   1   13    3     8     4    1.8571E+02 -1.6626E+00   1.8966E+02  2.290E+00  0.000E+00  0.000E+00  1.00619E+03  3.064E+00  4.443E+01  4.527E+00 -1.224E-01
   1   13    2     8     5    1.8966E+02 -1.7349E+00   1.9369E+02  2.290E+00  0.000E+00  0.000E+00  9.99963E+02  3.088E+00  4.478E+01  4.563E+00 -1.267E-01
   1   13    1     8     6    1.9369E+02 -1.2874E+00   1.9635E+02  1.374E+00  0.000E+00  0.000E+00  9.94983E+02  3.108E+00  4.507E+01  2.756E+00 -1.557E-01



 UBDSV3 SAVING "     NETRECHARGE" ON UNIT 100 AT TIME STEP  5, STRESS PERIOD   7
 UBDSV3 SAVING "    NETDISCHARGE" ON UNIT 101 AT TIME STEP  5, STRESS PERIOD   7
 UBDSV3 SAVING "           GW ET" ON UNIT  61 AT TIME STEP  5, STRESS PERIOD   7
 UBDSV3 SAVING "    UZF RECHARGE" ON UNIT  61 AT TIME STEP  5, STRESS PERIOD   7
 UBDSV3 SAVING " SURFACE LEAKAGE" ON UNIT  61 AT TIME STEP  5, STRESS PERIOD   7
 UBDSV3 SAVING "       HORT+DUNN" ON UNIT  61 AT TIME STEP  5, STRESS PERIOD   7
 UBDSV3 SAVING "  STORAGE CHANGE" ON UNIT  61 AT TIME STEP  5, STRESS PERIOD   7


UNSATURATED ZONE PACKAGE VOLUMETRIC BUDGET FOR  TIME STEP     5 STRESS PERIOD    7
  ------------------------------------------------------------------------------



     CUMULATIVE VOLUMES      L**3       RATES FOR THIS TIME STEP      L**3/T
     ------------------                 ------------------------

           IN:                                      IN:
           ---                                      ---
        INFILTRATION =    47191613.4531          INFILTRATION =           2.9000

          OUT:                                     OUT:
          ----                                     ----
              UZF ET =    11519439.7206                UZF ET =           1.1723
        UZF RECHARGE =     7879692.3965          UZF RECHARGE =       0.0000E+00

            IN - OUT =    27792481.3360              IN - OUT =           1.7277

          STORAGE:                                 STORAGE:
          --------                                 --------
      STORAGE CHANGE =    27792476.6855        STORAGE CHANGE =           1.7277

 PERCENT DISCREPANCY IS DIFFERENCE BETWEEN IN-OUT MINUS CHANGE IN STORAGE
 DIVIDED BY THE AVERAGE OF IN AND OUT TIMES 100

 PERCENT DISCREPANCY =           0.00     PERCENT DISCREPANCY =           0.00






1
  VOLUMETRIC BUDGET FOR ENTIRE MODEL AT END OF TIME STEP    5, STRESS PERIOD   7
  ------------------------------------------------------------------------------

     CUMULATIVE VOLUMES      L**3       RATES FOR THIS TIME STEP      L**3/T
     ------------------                 ------------------------

           IN:                                      IN:
           ---                                      ---
             STORAGE =   359762432.0000               STORAGE =          15.3023
       CONSTANT HEAD =           0.0000         CONSTANT HEAD =           0.0000
               WELLS =           0.0000                 WELLS =           0.0000
     HEAD DEP BOUNDS =     4790802.0000       HEAD DEP BOUNDS =           0.2952
      STREAM LEAKAGE =   266300944.0000        STREAM LEAKAGE =          15.8591
        UZF RECHARGE =     7879697.5000          UZF RECHARGE =           0.0000
               GW ET =           0.0000                 GW ET =           0.0000
     SURFACE LEAKAGE =           0.0000       SURFACE LEAKAGE =           0.0000

            TOTAL IN =   638733888.0000              TOTAL IN =          31.4566

          OUT:                                     OUT:
          ----                                     ----
             STORAGE =    58998900.0000               STORAGE =           0.3421
       CONSTANT HEAD =           0.0000         CONSTANT HEAD =           0.0000
               WELLS =   430579456.0000                 WELLS =          20.0000
     HEAD DEP BOUNDS =     4667519.5000       HEAD DEP BOUNDS =           0.2831
      STREAM LEAKAGE =    56945788.0000        STREAM LEAKAGE =           4.6849
        UZF RECHARGE =           0.0000          UZF RECHARGE =           0.0000
               GW ET =    87555592.0000                 GW ET =           6.1472
     SURFACE LEAKAGE =           0.0000       SURFACE LEAKAGE =           0.0000

           TOTAL OUT =   638747264.0000             TOTAL OUT =          31.4573

            IN - OUT =      -13376.0000              IN - OUT =      -7.5340E-04

 PERCENT DISCREPANCY =          -0.00     PERCENT DISCREPANCY =          -0.00






         TIME SUMMARY AT END OF TIME STEP    5 IN STRESS PERIOD    7
                    SECONDS     MINUTES      HOURS       DAYS        YEARS
                    -----------------------------------------------------------
   TIME STEP LENGTH 1.21100E+05  2018.3      33.639      1.4016     3.83743E-03
 STRESS PERIOD TIME 5.04972E+05  8416.2      140.27      5.8446     1.60016E-02
         TOTAL TIME 1.62730E+07 2.71216E+05  4520.3      188.34     0.51566    
1
 
 SOLVING FOR HEAD 
                                                   Max.-Head-Change                         Max.-Flux-Residual
  Residual-Control   Outer-Iter.   Inner-Iter.     Column Row Layer    Maximum-Head-Change  Column Row Layer    Maximum-Flux-Residual          L2-NORM 
          0                 1           2             2   13     1      -0.1899925671E-01       2   13    1        -0.7323787103E+00      0.2196267340E+01
          0                 2           2             2   13     1       0.1802018855E-02       2   13    1         0.7008135961E-01      0.2175522969E+00
          0                 3           2             5   10     1      -0.1535241401E-03       2   13    1        -0.6002350205E-02      0.1938605368E-01
          0                 4           1             5   10     1       0.1218569867E-04       2   13    1         0.4543210944E-03      0.1536757683E-02

    ------------------------------------------------
       NWT REQUIRED            4 OUTER ITERATIONS 
       AND A TOTAL OF          7 INNER ITERATIONS.
    ------------------------------------------------

 NO OUTPUT CONTROL FOR STRESS PERIOD    7   TIME STEP    6
 
 SOLVING FOR HEAD 
                                                   Max.-Head-Change                         Max.-Flux-Residual
  Residual-Control   Outer-Iter.   Inner-Iter.     Column Row Layer    Maximum-Head-Change  Column Row Layer    Maximum-Flux-Residual          L2-NORM 
          0                 1           2             2   13     1      -0.1838980998E-01       2   13    1        -0.6514962630E+00      0.2096518652E+01
          0                 2           2             5   10     1       0.1780636615E-02       2   13    1         0.6206004950E-01      0.2077250108E+00
          0                 3           2             5   10     1      -0.1588018767E-03       5   10    1        -0.5348093170E-02      0.1851654582E-01
          0                 4           1             5   10     1       0.1260460911E-04       5   10    1         0.4283823284E-03      0.1468348527E-02

    ------------------------------------------------
       NWT REQUIRED            4 OUTER ITERATIONS 
       AND A TOTAL OF          7 INNER ITERATIONS.
    ------------------------------------------------

 NO OUTPUT CONTROL FOR STRESS PERIOD    7   TIME STEP    7
 
 SOLVING FOR HEAD 
                                                   Max.-Head-Change                         Max.-Flux-Residual
  Residual-Control   Outer-Iter.   Inner-Iter.     Column Row Layer    Maximum-Head-Change  Column Row Layer    Maximum-Flux-Residual          L2-NORM 
          0                 1           2             5   10     1      -0.1853945995E-01       2   13    1        -0.5734809288E+00      0.2003462562E+01
          0                 2           2             5   10     1       0.1837078817E-02       5   10    1         0.5587773777E-01      0.1985871160E+00
          0                 3           2             5   10     1      -0.1638355582E-03       5   10    1        -0.5029002113E-02      0.1771083724E-01
          0                 4           1             5   10     1       0.1300414827E-04       5   10    1         0.4028231319E-03      0.1405351888E-02

    ------------------------------------------------
       NWT REQUIRED            4 OUTER ITERATIONS 
       AND A TOTAL OF          7 INNER ITERATIONS.
    ------------------------------------------------

 NO OUTPUT CONTROL FOR STRESS PERIOD    7   TIME STEP    8
 
 SOLVING FOR HEAD 
                                                   Max.-Head-Change                         Max.-Flux-Residual
  Residual-Control   Outer-Iter.   Inner-Iter.     Column Row Layer    Maximum-Head-Change  Column Row Layer    Maximum-Flux-Residual          L2-NORM 
          0                 1           2             5   10     1      -0.1908469480E-01       5   10    1        -0.5240891638E+00      0.1918178181E+01
          0                 2           2             5   10     1       0.1891104305E-02       5   10    1         0.5240835920E-01      0.1902394438E+00
          0                 3           2             5   10     1      -0.1686537120E-03       5   10    1        -0.4716758387E-02      0.1697800817E-01
          0                 4           1             5   10     1       0.1338657998E-04       5   10    1         0.3778124014E-03      0.1348247098E-02

    ------------------------------------------------
       NWT REQUIRED            4 OUTER ITERATIONS 
       AND A TOTAL OF          7 INNER ITERATIONS.
    ------------------------------------------------

 NO OUTPUT CONTROL FOR STRESS PERIOD    7   TIME STEP    9
 
 SOLVING FOR HEAD 
                                                   Max.-Head-Change                         Max.-Flux-Residual
  Residual-Control   Outer-Iter.   Inner-Iter.     Column Row Layer    Maximum-Head-Change  Column Row Layer    Maximum-Flux-Residual          L2-NORM 
          0                 1           2             5   10     1      -0.1961167928E-01       5   10    1        -0.4904601111E+00      0.1840820275E+01
          0                 2           2             5   10     1       0.1943321096E-02       5   10    1         0.4904541501E-01      0.1826930153E+00
          0                 3           2             5   10     1      -0.1733105629E-03       5   10    1        -0.4414093754E-02      0.1631673708E-01
          0                 4           1             5   10     1       0.1375620839E-04       5   10    1         0.3535689477E-03      0.1296784026E-02

    ------------------------------------------------
       NWT REQUIRED            4 OUTER ITERATIONS 
       AND A TOTAL OF          7 INNER ITERATIONS.
    ------------------------------------------------

 OUTPUT CONTROL FOR STRESS PERIOD    7   TIME STEP   10
    PRINT BUDGET
    SAVE BUDGET

            WELLS   PERIOD    7   STEP  10
 WELL      1   LAYER   1   ROW     6   COL     4   RATE    -2.00000    
 WELL      2   LAYER   1   ROW     6   COL     5   RATE    -2.00000    
 WELL      3   LAYER   1   ROW     7   COL     4   RATE    -2.00000    
 WELL      4   LAYER   1   ROW     7   COL     5   RATE    -2.00000    
 WELL      5   LAYER   1   ROW     8   COL     4   RATE    -2.00000    
 WELL      6   LAYER   1   ROW     8   COL     5   RATE    -2.00000    
 WELL      7   LAYER   1   ROW     9   COL     4   RATE    -2.00000    
 WELL      8   LAYER   1   ROW     9   COL     5   RATE    -2.00000    
 WELL      9   LAYER   1   ROW    10   COL     4   RATE    -2.00000    
 WELL     10   LAYER   1   ROW    10   COL     5   RATE    -2.00000    

  HEAD DEP BOUNDS   PERIOD    7   STEP    10
 BOUNDARY      1   LAYER   1   ROW    13   COL     1   RATE   -0.280441    
 BOUNDARY      2   LAYER   1   ROW    14   COL     9   RATE    0.295301    



 STREAM LISTING     PERIOD      7   STEP       10

 LAYER ROW COL. STREAM  RCH.  FLOW INTO     FLOW TO   FLOW OUT OF   OVRLND.     DIRECT     STREAM       STREAM     STREAM     STREAM   STREAMBED  STREAMBED
                SEG.NO.  NO.  STRM. RCH.    AQUIFER    STRM. RCH.    RUNOFF     PRECIP       ET          HEAD       DEPTH      WIDTH   CONDCTNC.   GRADIENT

   1    1    1     1     1    2.5000E+01  2.4557E-01   2.4935E+01  1.806E-01  0.000E+00  0.000E+00  1.09423E+03  1.180E+00  1.306E+01  5.875E-02  1.393E+00
   1    2    2     1     2    2.4935E+01  3.8140E-01   2.4835E+01  2.809E-01  0.000E+00  0.000E+00  1.08924E+03  1.178E+00  1.304E+01  9.128E-02  1.393E+00
   1    3    3     1     3    2.4835E+01  3.2634E-01   2.4749E+01  2.408E-01  0.000E+00  0.000E+00  1.08360E+03  1.177E+00  1.302E+01  7.813E-02  1.392E+00
   1    3    4     1     4    2.4749E+01  3.0139E-01   2.4670E+01  2.227E-01  0.000E+00  0.000E+00  1.07858E+03  1.176E+00  1.300E+01  7.218E-02  1.392E+00
   1    4    5     2     1    1.4670E+01  3.0219E-01   1.4515E+01  1.472E-01  0.000E+00  0.000E+00  1.07281E+03  8.742E-01  1.200E+01  7.800E-02  1.291E+00
   1    5    6     2     2    1.4515E+01  2.3216E-01   1.4396E+01  1.132E-01  0.000E+00  0.000E+00  1.06738E+03  8.693E-01  1.200E+01  6.000E-02  1.290E+00
   1    6    6     2     3    1.4396E+01  2.3190E-01   1.4278E+01  1.132E-01  0.000E+00  0.000E+00  1.06266E+03  8.650E-01  1.200E+01  6.000E-02  1.288E+00
   1    7    6     2     4    1.4278E+01  2.3164E-01   1.4159E+01  1.132E-01  0.000E+00  0.000E+00  1.05794E+03  8.607E-01  1.200E+01  6.000E-02  1.287E+00
   1    8    6     2     5    1.4159E+01  2.3138E-01   1.4041E+01  1.132E-01  0.000E+00  0.000E+00  1.05321E+03  8.564E-01  1.200E+01  6.000E-02  1.285E+00
   1    3    5     3     1    1.0000E+01  2.8252E-01   1.0367E+01  6.500E-01  0.000E+00  0.000E+00  1.07555E+03  1.909E+00  9.636E+00  7.227E-02  1.955E+00
   1    3    6     3     2    1.0367E+01  2.4905E-01   1.0768E+01  6.500E-01  0.000E+00  0.000E+00  1.07264E+03  1.727E+00  8.909E+00  6.682E-02  1.864E+00
   1    3    7     3     3    1.0768E+01  1.9718E-01   1.1156E+01  5.850E-01  0.000E+00  0.000E+00  1.06987E+03  1.555E+00  8.218E+00  5.547E-02  1.777E+00
   1    4    8     3     4    1.1156E+01  2.2567E-01   1.1711E+01  7.800E-01  0.000E+00  0.000E+00  1.06682E+03  1.364E+00  7.455E+00  6.709E-02  1.682E+00
   1    5    8     3     5    1.1711E+01  1.5790E-01   1.2203E+01  6.500E-01  0.000E+00  0.000E+00  1.06362E+03  1.164E+00  6.655E+00  4.991E-02  1.582E+00
   1    6    8     3     6    1.2203E+01  5.5980E-02   1.2407E+01  2.600E-01  0.000E+00  0.000E+00  1.06158E+03  1.036E+00  6.145E+00  1.844E-02  1.518E+00
   1    5   10     4     1    1.0000E+01  9.0979E-02   1.0034E+01  1.250E-01  0.000E+00  0.000E+00  1.07837E+03  6.392E-01  1.000E+01  2.500E-02  1.213E+00
   1    5    9     4     2    1.0034E+01  1.8206E-01   1.0102E+01  2.500E-01  0.000E+00  0.000E+00  1.07155E+03  6.411E-01  1.000E+01  5.000E-02  1.214E+00
   1    6    8     4     3    1.0102E+01  1.2752E-01   1.0149E+01  1.750E-01  0.000E+00  0.000E+00  1.06383E+03  6.433E-01  1.000E+01  3.500E-02  1.214E+00
   1    6    8     5     1    2.2556E+01  3.8282E-01   2.2393E+01  2.200E-01  0.000E+00  0.000E+00  1.05889E+03  8.917E-01  2.459E+01  9.837E-02  1.297E+00
   1    7    7     5     2    2.2393E+01  4.7589E-01   2.2192E+01  2.750E-01  0.000E+00  0.000E+00  1.05439E+03  8.892E-01  2.447E+01  1.224E-01  1.296E+00
   1    8    7     5     3    2.2192E+01  3.3140E-01   2.2054E+01  1.925E-01  0.000E+00  0.000E+00  1.05014E+03  8.868E-01  2.436E+01  8.526E-02  1.296E+00
   1    8    6     5     4    2.2054E+01  2.3585E-01   2.1955E+01  1.375E-01  0.000E+00  0.000E+00  1.04714E+03  8.851E-01  2.428E+01  6.071E-02  1.295E+00
   1    9    6     6     1    3.5996E+01  2.7131E-01   3.6168E+01  4.432E-01  0.000E+00  0.000E+00  1.04425E+03  1.522E+00  1.200E+01  6.000E-02  1.507E+00
   1   10    7     6     2    3.6168E+01  2.7157E-01   3.6340E+01  4.432E-01  0.000E+00  0.000E+00  1.03971E+03  1.526E+00  1.200E+01  6.000E-02  1.509E+00
   1   11    7     6     3    3.6340E+01  2.7183E-01   3.6511E+01  4.432E-01  0.000E+00  0.000E+00  1.03517E+03  1.530E+00  1.200E+01  6.000E-02  1.510E+00
   1   12    7     6     4    3.6511E+01  2.7208E-01   3.6682E+01  4.432E-01  0.000E+00  0.000E+00  1.03063E+03  1.535E+00  1.200E+01  6.000E-02  1.512E+00
   1   13    7     6     5    3.6682E+01  4.2058E-02   3.6817E+01  1.773E-01  0.000E+00  0.000E+00  1.02745E+03  1.539E+00  1.200E+01  2.400E-02  5.841E-01
   1   14    9     7     1    1.5000E+02  1.4768E+00   1.4893E+02  4.113E-01  0.000E+00  0.000E+00  1.03987E+03  2.288E+00  5.530E+01  5.593E-01  8.801E-01
   1   13    8     7     2    1.4893E+02  2.2822E+00   1.4710E+02  4.524E-01  0.000E+00  0.000E+00  1.03478E+03  2.281E+00  5.526E+01  6.149E-01  1.237E+00
   1   13    7     7     3    1.4710E+02  2.2312E+00   1.4528E+02  4.113E-01  0.000E+00  0.000E+00  1.02969E+03  2.271E+00  5.522E+01  5.585E-01  1.332E+00
   1   13    6     8     1    1.8210E+02  1.7885E+00   1.8260E+02  2.290E+00  0.000E+00  0.000E+00  1.02491E+03  3.031E+00  4.395E+01  4.478E-01  1.331E+00
   1   13    5     8     2    1.8260E+02  1.2184E+00   1.8368E+02  2.290E+00  0.000E+00  0.000E+00  1.01866E+03  3.036E+00  4.402E+01  4.486E-01  9.054E-01
   1   13    4     8     3    1.8368E+02  3.2549E-01   1.8564E+02  2.290E+00  0.000E+00  0.000E+00  1.01242E+03  3.045E+00  4.416E+01  4.500E-01  2.411E-01
   1   13    3     8     4    1.8564E+02 -1.3566E+00   1.8929E+02  2.290E+00  0.000E+00  0.000E+00  1.00619E+03  3.062E+00  4.441E+01  4.525E+00 -9.993E-02
   1   13    2     8     5    1.8929E+02 -1.3853E+00   1.9296E+02  2.290E+00  0.000E+00  0.000E+00  9.99960E+02  3.085E+00  4.473E+01  4.558E+00 -1.013E-01
   1   13    1     8     6    1.9296E+02 -1.1053E+00   1.9544E+02  1.374E+00  0.000E+00  0.000E+00  9.94978E+02  3.103E+00  4.500E+01  2.751E+00 -1.339E-01



 UBDSV3 SAVING "     NETRECHARGE" ON UNIT 100 AT TIME STEP 10, STRESS PERIOD   7
 UBDSV3 SAVING "    NETDISCHARGE" ON UNIT 101 AT TIME STEP 10, STRESS PERIOD   7
 UBDSV3 SAVING "           GW ET" ON UNIT  61 AT TIME STEP 10, STRESS PERIOD   7
 UBDSV3 SAVING "    UZF RECHARGE" ON UNIT  61 AT TIME STEP 10, STRESS PERIOD   7
 UBDSV3 SAVING " SURFACE LEAKAGE" ON UNIT  61 AT TIME STEP 10, STRESS PERIOD   7
 UBDSV3 SAVING "       HORT+DUNN" ON UNIT  61 AT TIME STEP 10, STRESS PERIOD   7
 UBDSV3 SAVING "  STORAGE CHANGE" ON UNIT  61 AT TIME STEP 10, STRESS PERIOD   7


UNSATURATED ZONE PACKAGE VOLUMETRIC BUDGET FOR  TIME STEP    10 STRESS PERIOD    7
  ------------------------------------------------------------------------------



     CUMULATIVE VOLUMES      L**3       RATES FOR THIS TIME STEP      L**3/T
     ------------------                 ------------------------

           IN:                                      IN:
           ---                                      ---
        INFILTRATION =    49550072.7207          INFILTRATION =           2.9000

          OUT:                                     OUT:
          ----                                     ----
              UZF ET =    12471044.0470                UZF ET =           1.1603
        UZF RECHARGE =     7879692.3965          UZF RECHARGE =       0.0000E+00

            IN - OUT =    29199336.2772              IN - OUT =           1.7397

          STORAGE:                                 STORAGE:
          --------                                 --------
      STORAGE CHANGE =    29199331.6055        STORAGE CHANGE =           1.7397

 PERCENT DISCREPANCY IS DIFFERENCE BETWEEN IN-OUT MINUS CHANGE IN STORAGE
 DIVIDED BY THE AVERAGE OF IN AND OUT TIMES 100

 PERCENT DISCREPANCY =           0.00     PERCENT DISCREPANCY =           0.00






1
  VOLUMETRIC BUDGET FOR ENTIRE MODEL AT END OF TIME STEP   10, STRESS PERIOD   7
  ------------------------------------------------------------------------------

     CUMULATIVE VOLUMES      L**3       RATES FOR THIS TIME STEP      L**3/T
     ------------------                 ------------------------

           IN:                                      IN:
           ---                                      ---
             STORAGE =   371508992.0000               STORAGE =          14.0497
       CONSTANT HEAD =           0.0000         CONSTANT HEAD =           0.0000
               WELLS =           0.0000                 WELLS =           0.0000
     HEAD DEP BOUNDS =     5030934.5000       HEAD DEP BOUNDS =           0.2953
      STREAM LEAKAGE =   279233664.0000        STREAM LEAKAGE =          15.9301
        UZF RECHARGE =     7879697.5000          UZF RECHARGE =           0.0000
               GW ET =           0.0000                 GW ET =           0.0000
     SURFACE LEAKAGE =           0.0000       SURFACE LEAKAGE =           0.0000

            TOTAL IN =   663653248.0000              TOTAL IN =          30.2751

          OUT:                                     OUT:
          ----                                     ----
             STORAGE =    59060316.0000               STORAGE =           0.0000
       CONSTANT HEAD =           0.0000         CONSTANT HEAD =           0.0000
               WELLS =   446844672.0000                 WELLS =          20.0000
     HEAD DEP BOUNDS =     4896387.0000       HEAD DEP BOUNDS =           0.2804
      STREAM LEAKAGE =    60310820.0000        STREAM LEAKAGE =           3.8471
        UZF RECHARGE =           0.0000          UZF RECHARGE =           0.0000
               GW ET =    92555008.0000                 GW ET =           6.1482
     SURFACE LEAKAGE =           0.0000       SURFACE LEAKAGE =           0.0000

           TOTAL OUT =   663667200.0000             TOTAL OUT =          30.2758

            IN - OUT =      -13952.0000              IN - OUT =      -7.0572E-04

 PERCENT DISCREPANCY =          -0.00     PERCENT DISCREPANCY =          -0.00






         TIME SUMMARY AT END OF TIME STEP   10 IN STRESS PERIOD    7
                    SECONDS     MINUTES      HOURS       DAYS        YEARS
                    -----------------------------------------------------------
   TIME STEP LENGTH 1.95033E+05  3250.6      54.176      2.2573     6.18023E-03
 STRESS PERIOD TIME 1.31823E+06  21971.      366.18      15.257     4.17723E-02
         TOTAL TIME 1.70862E+07 2.84770E+05  4746.2      197.76     0.54143    
1
 
 SOLVING FOR HEAD 
                                                   Max.-Head-Change                         Max.-Flux-Residual
  Residual-Control   Outer-Iter.   Inner-Iter.     Column Row Layer    Maximum-Head-Change  Column Row Layer    Maximum-Flux-Residual          L2-NORM 
          0                 1           2             5   10     1      -0.2012976095E-01       5   10    1        -0.4581814914E+00      0.1771971745E+01
          0                 2           2             5   10     1       0.1994655446E-02       5   10    1         0.4581751747E-01      0.1759949548E+00
          0                 3           2             5   10     1      -0.1778887173E-03       5   10    1        -0.4123583292E-02      0.1573226535E-01
          0                 4           1             5   10     1       0.1411959078E-04       5   10    1         0.3302990560E-03      0.1251544262E-02

    ------------------------------------------------
       NWT REQUIRED            4 OUTER ITERATIONS 
       AND A TOTAL OF          7 INNER ITERATIONS.
    ------------------------------------------------

 NO OUTPUT CONTROL FOR STRESS PERIOD    7   TIME STEP   11
 
 SOLVING FOR HEAD 
                                                   Max.-Head-Change                         Max.-Flux-Residual
  Residual-Control   Outer-Iter.   Inner-Iter.     Column Row Layer    Maximum-Head-Change  Column Row Layer    Maximum-Flux-Residual          L2-NORM 
          0                 1           2             5   10     1      -0.2065250063E-01       5   10    1        -0.4275330251E+00      0.1711384226E+01
          0                 2           2             5   10     1       0.2046451223E-02       5   10    1         0.4275264012E-01      0.1701238521E+00
          0                 3           2             5   10     1      -0.1825080230E-03       5   10    1        -0.3847744595E-02      0.1522172148E-01
          0                 4           1             5   10     1       0.1448623952E-04       5   10    1         0.3082043734E-03      0.1211238244E-02

    ------------------------------------------------
       NWT REQUIRED            4 OUTER ITERATIONS 
       AND A TOTAL OF          7 INNER ITERATIONS.
    ------------------------------------------------

 NO OUTPUT CONTROL FOR STRESS PERIOD    7   TIME STEP   12
 
 SOLVING FOR HEAD 
                                                   Max.-Head-Change                         Max.-Flux-Residual
  Residual-Control   Outer-Iter.   Inner-Iter.     Column Row Layer    Maximum-Head-Change  Column Row Layer    Maximum-Flux-Residual          L2-NORM 
          0                 1           2             5   10     1      -0.2119708753E-01       5   10    1        -0.3987571939E+00      0.1659553696E+01
          0                 2           2             5   10     1       0.2100411714E-02       5   10    1         0.3987503266E-01      0.1651100726E+00
          0                 3           2             5   10     1      -0.1873203820E-03       5   10    1        -0.3588760139E-02      0.1478638790E-01
          0                 4           1             5   10     1       0.1486821092E-04       5   10    1         0.2874597071E-03      0.1178801691E-02

    ------------------------------------------------
       NWT REQUIRED            4 OUTER ITERATIONS 
       AND A TOTAL OF          7 INNER ITERATIONS.
    ------------------------------------------------

 NO OUTPUT CONTROL FOR STRESS PERIOD    7   TIME STEP   13
 
 SOLVING FOR HEAD 
                                                   Max.-Head-Change                         Max.-Flux-Residual
  Residual-Control   Outer-Iter.   Inner-Iter.     Column Row Layer    Maximum-Head-Change  Column Row Layer    Maximum-Flux-Residual          L2-NORM 
          0                 1           2             5   10     1      -0.2178500780E-01       5   10    1        -0.3720679733E+00      0.1615476288E+01
          0                 2           2             5   10     1       0.2158666097E-02       5   10    1         0.3720609404E-01      0.1608549601E+00
          0                 3           2             5   10     1      -0.1925156749E-03       5   10    1        -0.3348555785E-02      0.1441712986E-01
          0                 4           1             5   10     1       0.1528057637E-04       5   10    1         0.2682193322E-03      0.1150202494E-02

    ------------------------------------------------
       NWT REQUIRED            4 OUTER ITERATIONS 
       AND A TOTAL OF          7 INNER ITERATIONS.
    ------------------------------------------------

 NO OUTPUT CONTROL FOR STRESS PERIOD    7   TIME STEP   14
 
 SOLVING FOR HEAD 
                                                   Max.-Head-Change                         Max.-Flux-Residual
  Residual-Control   Outer-Iter.   Inner-Iter.     Column Row Layer    Maximum-Head-Change  Column Row Layer    Maximum-Flux-Residual          L2-NORM 
          0                 1           2             5   10     1      -0.2244093220E-01       5   10    1        -0.3476232008E+00      0.1578460209E+01
          0                 2           2             5   10     1       0.2223659110E-02       5   10    1         0.3476160924E-01      0.1572871236E+00
          0                 3           2             5   10     1      -0.1983119332E-03       5   10    1        -0.3128552198E-02      0.1410882550E-01
          0                 4           1             5   10     1       0.1574064251E-04       5   10    1         0.2505970406E-03      0.1126665940E-02

    ------------------------------------------------
       NWT REQUIRED            4 OUTER ITERATIONS 
       AND A TOTAL OF          7 INNER ITERATIONS.
    ------------------------------------------------

 OUTPUT CONTROL FOR STRESS PERIOD    7   TIME STEP   15
    PRINT BUDGET
    PRINT HEAD FOR ALL LAYERS
    SAVE HEAD FOR ALL LAYERS
    SAVE BUDGET

            WELLS   PERIOD    7   STEP  15
 WELL      1   LAYER   1   ROW     6   COL     4   RATE    -2.00000    
 WELL      2   LAYER   1   ROW     6   COL     5   RATE    -2.00000    
 WELL      3   LAYER   1   ROW     7   COL     4   RATE    -2.00000    
 WELL      4   LAYER   1   ROW     7   COL     5   RATE    -2.00000    
 WELL      5   LAYER   1   ROW     8   COL     4   RATE    -2.00000    
 WELL      6   LAYER   1   ROW     8   COL     5   RATE    -2.00000    
 WELL      7   LAYER   1   ROW     9   COL     4   RATE    -2.00000    
 WELL      8   LAYER   1   ROW     9   COL     5   RATE    -2.00000    
 WELL      9   LAYER   1   ROW    10   COL     4   RATE    -2.00000    
 WELL     10   LAYER   1   ROW    10   COL     5   RATE    -2.00000    

  HEAD DEP BOUNDS   PERIOD    7   STEP    15
 BOUNDARY      1   LAYER   1   ROW    13   COL     1   RATE   -0.277975    
 BOUNDARY      2   LAYER   1   ROW    14   COL     9   RATE    0.295419    



 STREAM LISTING     PERIOD      7   STEP       15

 LAYER ROW COL. STREAM  RCH.  FLOW INTO     FLOW TO   FLOW OUT OF   OVRLND.     DIRECT     STREAM       STREAM     STREAM     STREAM   STREAMBED  STREAMBED
                SEG.NO.  NO.  STRM. RCH.    AQUIFER    STRM. RCH.    RUNOFF     PRECIP       ET          HEAD       DEPTH      WIDTH   CONDCTNC.   GRADIENT

   1    1    1     1     1    2.5000E+01  2.4557E-01   2.4935E+01  1.806E-01  0.000E+00  0.000E+00  1.09423E+03  1.180E+00  1.306E+01  5.875E-02  1.393E+00
   1    2    2     1     2    2.4935E+01  3.8140E-01   2.4835E+01  2.809E-01  0.000E+00  0.000E+00  1.08924E+03  1.178E+00  1.304E+01  9.128E-02  1.393E+00
   1    3    3     1     3    2.4835E+01  3.2634E-01   2.4749E+01  2.408E-01  0.000E+00  0.000E+00  1.08360E+03  1.177E+00  1.302E+01  7.813E-02  1.392E+00
   1    3    4     1     4    2.4749E+01  3.0139E-01   2.4670E+01  2.227E-01  0.000E+00  0.000E+00  1.07858E+03  1.176E+00  1.300E+01  7.218E-02  1.392E+00
   1    4    5     2     1    1.4670E+01  3.0219E-01   1.4515E+01  1.472E-01  0.000E+00  0.000E+00  1.07281E+03  8.742E-01  1.200E+01  7.800E-02  1.291E+00
   1    5    6     2     2    1.4515E+01  2.3216E-01   1.4396E+01  1.132E-01  0.000E+00  0.000E+00  1.06738E+03  8.693E-01  1.200E+01  6.000E-02  1.290E+00
   1    6    6     2     3    1.4396E+01  2.3190E-01   1.4278E+01  1.132E-01  0.000E+00  0.000E+00  1.06266E+03  8.650E-01  1.200E+01  6.000E-02  1.288E+00
   1    7    6     2     4    1.4278E+01  2.3164E-01   1.4159E+01  1.132E-01  0.000E+00  0.000E+00  1.05794E+03  8.607E-01  1.200E+01  6.000E-02  1.287E+00
   1    8    6     2     5    1.4159E+01  2.3138E-01   1.4041E+01  1.132E-01  0.000E+00  0.000E+00  1.05321E+03  8.564E-01  1.200E+01  6.000E-02  1.285E+00
   1    3    5     3     1    1.0000E+01  2.8252E-01   1.0367E+01  6.500E-01  0.000E+00  0.000E+00  1.07555E+03  1.909E+00  9.636E+00  7.227E-02  1.955E+00
   1    3    6     3     2    1.0367E+01  2.4905E-01   1.0768E+01  6.500E-01  0.000E+00  0.000E+00  1.07264E+03  1.727E+00  8.909E+00  6.682E-02  1.864E+00
   1    3    7     3     3    1.0768E+01  1.9718E-01   1.1156E+01  5.850E-01  0.000E+00  0.000E+00  1.06987E+03  1.555E+00  8.218E+00  5.547E-02  1.777E+00
   1    4    8     3     4    1.1156E+01  2.2567E-01   1.1711E+01  7.800E-01  0.000E+00  0.000E+00  1.06682E+03  1.364E+00  7.455E+00  6.709E-02  1.682E+00
   1    5    8     3     5    1.1711E+01  1.5790E-01   1.2203E+01  6.500E-01  0.000E+00  0.000E+00  1.06362E+03  1.164E+00  6.655E+00  4.991E-02  1.582E+00
   1    6    8     3     6    1.2203E+01  5.5980E-02   1.2407E+01  2.600E-01  0.000E+00  0.000E+00  1.06158E+03  1.036E+00  6.145E+00  1.844E-02  1.518E+00
   1    5   10     4     1    1.0000E+01  9.0979E-02   1.0034E+01  1.250E-01  0.000E+00  0.000E+00  1.07837E+03  6.392E-01  1.000E+01  2.500E-02  1.213E+00
   1    5    9     4     2    1.0034E+01  1.8206E-01   1.0102E+01  2.500E-01  0.000E+00  0.000E+00  1.07155E+03  6.411E-01  1.000E+01  5.000E-02  1.214E+00
   1    6    8     4     3    1.0102E+01  1.2752E-01   1.0149E+01  1.750E-01  0.000E+00  0.000E+00  1.06383E+03  6.433E-01  1.000E+01  3.500E-02  1.214E+00
   1    6    8     5     1    2.2556E+01  3.8282E-01   2.2393E+01  2.200E-01  0.000E+00  0.000E+00  1.05889E+03  8.917E-01  2.459E+01  9.837E-02  1.297E+00
   1    7    7     5     2    2.2393E+01  4.7589E-01   2.2192E+01  2.750E-01  0.000E+00  0.000E+00  1.05439E+03  8.892E-01  2.447E+01  1.224E-01  1.296E+00
   1    8    7     5     3    2.2192E+01  3.3140E-01   2.2054E+01  1.925E-01  0.000E+00  0.000E+00  1.05014E+03  8.868E-01  2.436E+01  8.526E-02  1.296E+00
   1    8    6     5     4    2.2054E+01  2.3585E-01   2.1955E+01  1.375E-01  0.000E+00  0.000E+00  1.04714E+03  8.851E-01  2.428E+01  6.071E-02  1.295E+00
   1    9    6     6     1    3.5996E+01  2.7131E-01   3.6168E+01  4.432E-01  0.000E+00  0.000E+00  1.04425E+03  1.522E+00  1.200E+01  6.000E-02  1.507E+00
   1   10    7     6     2    3.6168E+01  2.7157E-01   3.6340E+01  4.432E-01  0.000E+00  0.000E+00  1.03971E+03  1.526E+00  1.200E+01  6.000E-02  1.509E+00
   1   11    7     6     3    3.6340E+01  2.7183E-01   3.6511E+01  4.432E-01  0.000E+00  0.000E+00  1.03517E+03  1.530E+00  1.200E+01  6.000E-02  1.510E+00
   1   12    7     6     4    3.6511E+01  2.7208E-01   3.6682E+01  4.432E-01  0.000E+00  0.000E+00  1.03063E+03  1.535E+00  1.200E+01  6.000E-02  1.512E+00
   1   13    7     6     5    3.6682E+01  4.2732E-02   3.6817E+01  1.773E-01  0.000E+00  0.000E+00  1.02745E+03  1.539E+00  1.200E+01  2.400E-02  5.935E-01
   1   14    9     7     1    1.5000E+02  1.4785E+00   1.4893E+02  4.113E-01  0.000E+00  0.000E+00  1.03987E+03  2.288E+00  5.530E+01  5.593E-01  8.811E-01
   1   13    8     7     2    1.4893E+02  2.2883E+00   1.4710E+02  4.524E-01  0.000E+00  0.000E+00  1.03478E+03  2.281E+00  5.526E+01  6.149E-01  1.241E+00
   1   13    7     7     3    1.4710E+02  2.2468E+00   1.4526E+02  4.113E-01  0.000E+00  0.000E+00  1.02969E+03  2.271E+00  5.522E+01  5.585E-01  1.341E+00
   1   13    6     8     1    1.8208E+02  1.8126E+00   1.8256E+02  2.290E+00  0.000E+00  0.000E+00  1.02491E+03  3.031E+00  4.394E+01  4.478E-01  1.349E+00
   1   13    5     8     2    1.8256E+02  1.2450E+00   1.8360E+02  2.290E+00  0.000E+00  0.000E+00  1.01866E+03  3.035E+00  4.401E+01  4.485E-01  9.253E-01
   1   13    4     8     3    1.8360E+02  3.5192E-01   1.8554E+02  2.290E+00  0.000E+00  0.000E+00  1.01242E+03  3.045E+00  4.415E+01  4.499E-01  2.608E-01
   1   13    3     8     4    1.8554E+02 -1.1515E+00   1.8898E+02  2.290E+00  0.000E+00  0.000E+00  1.00619E+03  3.061E+00  4.439E+01  4.523E+00 -8.486E-02
   1   13    2     8     5    1.8898E+02 -1.1533E+00   1.9242E+02  2.290E+00  0.000E+00  0.000E+00  9.99957E+02  3.082E+00  4.469E+01  4.554E+00 -8.441E-02
   1   13    1     8     6    1.9242E+02 -9.3586E-01   1.9473E+02  1.374E+00  0.000E+00  0.000E+00  9.94975E+02  3.100E+00  4.494E+01  2.748E+00 -1.135E-01



 UBDSV3 SAVING "     NETRECHARGE" ON UNIT 100 AT TIME STEP 15, STRESS PERIOD   7
 UBDSV3 SAVING "    NETDISCHARGE" ON UNIT 101 AT TIME STEP 15, STRESS PERIOD   7
 UBDSV3 SAVING "           GW ET" ON UNIT  61 AT TIME STEP 15, STRESS PERIOD   7
 UBDSV3 SAVING "    UZF RECHARGE" ON UNIT  61 AT TIME STEP 15, STRESS PERIOD   7
 UBDSV3 SAVING " SURFACE LEAKAGE" ON UNIT  61 AT TIME STEP 15, STRESS PERIOD   7
 UBDSV3 SAVING "       HORT+DUNN" ON UNIT  61 AT TIME STEP 15, STRESS PERIOD   7
 UBDSV3 SAVING "  STORAGE CHANGE" ON UNIT  61 AT TIME STEP 15, STRESS PERIOD   7


UNSATURATED ZONE PACKAGE VOLUMETRIC BUDGET FOR  TIME STEP    15 STRESS PERIOD    7
  ------------------------------------------------------------------------------



     CUMULATIVE VOLUMES      L**3       RATES FOR THIS TIME STEP      L**3/T
     ------------------                 ------------------------

           IN:                                      IN:
           ---                                      ---
        INFILTRATION =    53348395.0723          INFILTRATION =           2.9000

          OUT:                                     OUT:
          ----                                     ----
              UZF ET =    14002465.4684                UZF ET =           1.1749
        UZF RECHARGE =     7879692.3965          UZF RECHARGE =       0.0000E+00

            IN - OUT =    31466237.2073              IN - OUT =           1.7251

          STORAGE:                                 STORAGE:
          --------                                 --------
      STORAGE CHANGE =    31466232.5820        STORAGE CHANGE =           1.7251

 PERCENT DISCREPANCY IS DIFFERENCE BETWEEN IN-OUT MINUS CHANGE IN STORAGE
 DIVIDED BY THE AVERAGE OF IN AND OUT TIMES 100

 PERCENT DISCREPANCY =           0.00     PERCENT DISCREPANCY =           0.00






1
              HEAD IN LAYER   1 AT END OF TIME STEP  15 IN STRESS PERIOD    7
  ---------------------------------------------------------------------------

           1       2       3       4       5       6       7       8       9      10
 ...................................................................................
   1  1032.60 1029.40 6999.00 6999.00 6999.00 6999.00 6999.00 6999.00 6999.00 6999.00
   2  1029.71 1025.44 1023.49 6999.00 6999.00 1022.10 1022.38 1022.54 6999.00 6999.00
   3  6999.00 1022.49 1021.31 1020.28 1020.28 1020.84 1021.60 1021.84 6999.00 6999.00
   4  1020.33 1020.42 1019.54 1018.51 1018.36 1018.57 1019.59 1021.18 1021.13 6999.00
   5  1019.43 1018.64 1017.40 1016.46 1016.75 1017.62 1018.47 1019.53 1020.53 1021.36
   6  1018.51 1017.28 1015.37 1013.96 1014.56 1016.50 1017.91 1019.16 1020.05 1021.29
   7  1017.86 1016.16 1013.93 1012.40 1013.27 1015.62 1017.43 1018.52 1019.78 6999.00
   8  6999.00 1015.19 1013.07 1011.55 1012.57 1015.06 1016.85 1018.43 1020.05 6999.00
   9  6999.00 1014.19 1012.58 1011.39 1012.48 1014.92 1016.67 1018.63 1020.90 6999.00
  10  6999.00 1013.04 1012.35 1011.88 1013.06 1015.47 1017.35 1019.54 1022.10 1022.97
  11  6999.00 1011.02 1011.72 1012.95 1014.50 1016.78 1019.00 1021.68 1024.65 6999.00
  12  1001.18 1006.28 1009.77 1012.56 1015.31 1018.49 1021.43 1025.82 1029.42 6999.00
  13   995.32 1000.21 1006.44 1011.64 1015.88 1020.86 1025.67 1031.06 1034.04 6999.00
  14  6999.00 1005.74 1008.55 1012.71 1016.88 1021.32 1026.49 1032.47 1037.23 6999.00
  15  6999.00 6999.00 1012.14 1014.61 1017.74 1020.55 6999.00 6999.00 6999.00 6999.00

 HEAD WILL BE SAVED ON UNIT   58 AT END OF TIME STEP   15, STRESS PERIOD    7
1
  VOLUMETRIC BUDGET FOR ENTIRE MODEL AT END OF TIME STEP   15, STRESS PERIOD   7
  ------------------------------------------------------------------------------

     CUMULATIVE VOLUMES      L**3       RATES FOR THIS TIME STEP      L**3/T
     ------------------                 ------------------------

           IN:                                      IN:
           ---                                      ---
             STORAGE =   389291872.0000               STORAGE =          13.3381
       CONSTANT HEAD =           0.0000         CONSTANT HEAD =           0.0000
               WELLS =           0.0000                 WELLS =           0.0000
     HEAD DEP BOUNDS =     5417803.5000       HEAD DEP BOUNDS =           0.2954
      STREAM LEAKAGE =   300179776.0000        STREAM LEAKAGE =          16.0314
        UZF RECHARGE =     7879697.5000          UZF RECHARGE =           0.0000
               GW ET =           0.0000                 GW ET =           0.0000
     SURFACE LEAKAGE =           0.0000       SURFACE LEAKAGE =           0.0000

            TOTAL IN =   702769152.0000              TOTAL IN =          29.6649

          OUT:                                     OUT:
          ----                                     ----
             STORAGE =    59060316.0000               STORAGE =           0.0000
       CONSTANT HEAD =           0.0000         CONSTANT HEAD =           0.0000
               WELLS =   473040000.0000                 WELLS =          20.0000
     HEAD DEP BOUNDS =     5261582.0000       HEAD DEP BOUNDS =           0.2780
      STREAM LEAKAGE =    64815324.0000        STREAM LEAKAGE =           3.2406
        UZF RECHARGE =           0.0000          UZF RECHARGE =           0.0000
               GW ET =   100606712.0000                 GW ET =           6.1469
     SURFACE LEAKAGE =           0.0000       SURFACE LEAKAGE =           0.0000

           TOTAL OUT =   702783936.0000             TOTAL OUT =          29.6656

            IN - OUT =      -14784.0000              IN - OUT =      -6.7139E-04

 PERCENT DISCREPANCY =          -0.00     PERCENT DISCREPANCY =          -0.00






         TIME SUMMARY AT END OF TIME STEP   15 IN STRESS PERIOD    7
                    SECONDS     MINUTES      HOURS       DAYS        YEARS
                    -----------------------------------------------------------
   TIME STEP LENGTH 3.14103E+05  5235.0      87.251      3.6354     9.95332E-03
 STRESS PERIOD TIME 2.62800E+06  43800.      730.00      30.417     8.32763E-02
         TOTAL TIME 1.83960E+07 3.06600E+05  5110.0      212.92     0.58293    
1
1
                            STRESS PERIOD NO.    8, LENGTH =   2628000.    
                            -----------------------------------------------

                              NUMBER OF TIME STEPS =    15

                               MULTIPLIER FOR DELT =     1.100

                            INITIAL TIME STEP SIZE =   82713.07    

      0 WELLS

 REUSING NON-PARAMETER GHB CELLS FROM LAST STRESS PERIOD

      2 GHB CELLS

 REUSING STREAM SEGMENT DATA FROM LAST STRESS PERIOD



            AREAL INFILTRATION RATE
 READING ON UNIT   19 WITH FORMAT: (10F4.0)            

            1           2           3           4           5           6           7           8           9          10
 ........................................................................................................................
   1   5.0000E-09  1.0000E-08   0.000       0.000       0.000       0.000       0.000       0.000       0.000       0.000    
   2   1.0000E-08  5.0000E-09  1.0000E-08   0.000       0.000      4.0000E-08  4.0000E-08  2.5000E-08   0.000       0.000    
   3    0.000      2.5000E-08  5.0000E-09  5.0000E-09  4.0000E-08  4.0000E-08  2.5000E-08  2.5000E-08   0.000       0.000    
   4   4.0000E-08  2.5000E-08  5.0000E-09  5.0000E-09  5.0000E-09  5.0000E-09  5.0000E-09  5.0000E-09  1.0000E-08   0.000    
   5   4.0000E-08  2.5000E-08  5.0000E-09  5.0000E-09  5.0000E-09  5.0000E-09  5.0000E-09  5.0000E-09  5.0000E-09  5.0000E-09
   6   4.0000E-08  2.5000E-08  2.5000E-08  1.0000E-08  1.0000E-08  5.0000E-09  5.0000E-09  5.0000E-09  5.0000E-09  2.5000E-08
   7   4.0000E-08  2.5000E-08  2.5000E-08  1.0000E-08  1.0000E-08  5.0000E-09  5.0000E-09  1.0000E-08  1.0000E-08   0.000    
   8    0.000      2.5000E-08  2.5000E-08  1.0000E-08  1.0000E-08  5.0000E-09  5.0000E-09  1.0000E-08  2.5000E-08   0.000    
   9    0.000      2.5000E-08  2.5000E-08  1.0000E-08  1.0000E-08  5.0000E-09  5.0000E-09  1.0000E-08  2.5000E-08   0.000    
  10    0.000      2.5000E-08  2.5000E-08  1.0000E-08  1.0000E-08  5.0000E-09  5.0000E-09  1.0000E-08  2.5000E-08  4.0000E-08
  11    0.000      5.0000E-09  5.0000E-09  5.0000E-09  5.0000E-09  5.0000E-09  5.0000E-09  1.0000E-08  2.5000E-08   0.000    
  12   5.0000E-09  5.0000E-09  5.0000E-09  5.0000E-09  5.0000E-09  5.0000E-09  5.0000E-09  5.0000E-09  1.0000E-08   0.000    
  13   5.0000E-09  5.0000E-09  1.0000E-08  1.0000E-08  1.0000E-08  1.0000E-08  1.0000E-08  5.0000E-09  5.0000E-09   0.000    
  14    0.000      1.0000E-08  2.5000E-08  2.5000E-08  2.5000E-08  2.5000E-08  2.5000E-08  1.0000E-08  5.0000E-09   0.000    
  15    0.000       0.000      4.0000E-08  4.0000E-08  4.0000E-08  4.0000E-08   0.000       0.000       0.000       0.000    

USING ET RATE FROM PREVIOUS STRESS PERIOD. CURRENT PERIOD IS:       8

 USING ET EXTINCTION DEPTH FROM PREVIOUS STRESS PERIOD. CURRENT PERIOD IS:       8

 USING EXTINCTION WATER CONTENT FROM PREVIOUS STRESS PERIOD. CURRENT PERIOD IS:       8
 
 SOLVING FOR HEAD 
                                                   Max.-Head-Change                         Max.-Flux-Residual
  Residual-Control   Outer-Iter.   Inner-Iter.     Column Row Layer    Maximum-Head-Change  Column Row Layer    Maximum-Flux-Residual          L2-NORM 
          0                 1           2             4    8     1       0.3267774509E-01       4    8    1         0.1808245728E+01      0.5590486914E+01
          0                 2           2             4    8     1      -0.3238073710E-02       4    8    1        -0.1808250005E+00      0.5590220086E+00
          0                 3           2             4    8     1       0.2887797083E-03       4    8    1         0.1627424788E-01      0.5030940599E-01
          0                 4           1             4    8     1      -0.2292136435E-04       4    8    1        -0.1303567618E-02      0.4029558297E-02

    ------------------------------------------------
       NWT REQUIRED            4 OUTER ITERATIONS 
       AND A TOTAL OF          7 INNER ITERATIONS.
    ------------------------------------------------

 NO OUTPUT CONTROL FOR STRESS PERIOD    8   TIME STEP    1
 
 SOLVING FOR HEAD 
                                                   Max.-Head-Change                         Max.-Flux-Residual
  Residual-Control   Outer-Iter.   Inner-Iter.     Column Row Layer    Maximum-Head-Change  Column Row Layer    Maximum-Flux-Residual          L2-NORM 
          0                 1           2             4    8     1       0.3574051061E-01       4    8    1         0.1799055625E+01      0.5505155407E+01
          0                 2           2             4    8     1      -0.3541567783E-02       4    8    1        -0.1799060677E+00      0.5504919385E+00
          0                 3           2             4    8     1       0.3158460744E-03       4    8    1         0.1619154313E-01      0.4954207536E-01
          0                 4           1             4    8     1      -0.2506970837E-04       4    8    1        -0.1296942978E-02      0.3968107844E-02

    ------------------------------------------------
       NWT REQUIRED            4 OUTER ITERATIONS 
       AND A TOTAL OF          7 INNER ITERATIONS.
    ------------------------------------------------

 NO OUTPUT CONTROL FOR STRESS PERIOD    8   TIME STEP    2
 
 SOLVING FOR HEAD 
                                                   Max.-Head-Change                         Max.-Flux-Residual
  Residual-Control   Outer-Iter.   Inner-Iter.     Column Row Layer    Maximum-Head-Change  Column Row Layer    Maximum-Flux-Residual          L2-NORM 
          0                 1           2             4    8     1       0.3906263461E-01       4    8    1         0.1788791454E+01      0.5415690519E+01
          0                 2           2             4    8     1      -0.3870762569E-02       4    8    1        -0.1788797473E+00      0.5415485952E+00
          0                 3           2             4    8     1       0.3452044901E-03       4    8    1         0.1609917335E-01      0.4873739034E-01
          0                 4           1             4    8     1      -0.2739997914E-04       4    8    1        -0.1289544155E-02      0.3903746428E-02

    ------------------------------------------------
       NWT REQUIRED            4 OUTER ITERATIONS 
       AND A TOTAL OF          7 INNER ITERATIONS.
    ------------------------------------------------

 NO OUTPUT CONTROL FOR STRESS PERIOD    8   TIME STEP    3
 
 SOLVING FOR HEAD 
                                                   Max.-Head-Change                         Max.-Flux-Residual
  Residual-Control   Outer-Iter.   Inner-Iter.     Column Row Layer    Maximum-Head-Change  Column Row Layer    Maximum-Flux-Residual          L2-NORM 
          0                 1           2             4    8     1       0.4265946931E-01       4    8    1         0.1777332125E+01      0.5322167236E+01
          0                 2           2             4    8     1      -0.4227179573E-02       4    8    1        -0.1777339356E+00      0.5321996292E+00
          0                 3           2             4    8     1       0.3769906451E-03       4    8    1         0.1599604910E-01      0.4789625788E-01
          0                 4           1             4    8     1      -0.2992294758E-04       4    8    1        -0.1281283917E-02      0.3836400942E-02

    ------------------------------------------------
       NWT REQUIRED            4 OUTER ITERATIONS 
       AND A TOTAL OF          7 INNER ITERATIONS.
    ------------------------------------------------

 NO OUTPUT CONTROL FOR STRESS PERIOD    8   TIME STEP    4
 
 SOLVING FOR HEAD 
                                                   Max.-Head-Change                         Max.-Flux-Residual
  Residual-Control   Outer-Iter.   Inner-Iter.     Column Row Layer    Maximum-Head-Change  Column Row Layer    Maximum-Flux-Residual          L2-NORM 
          0                 1           2             4    8     1       0.4654534618E-01       4    8    1         0.1764535233E+01      0.5224657889E+01
          0                 2           2             4    8     1      -0.4612239247E-02       4    8    1        -0.1764543985E+00      0.5224521739E+00
          0                 3           2             4    8     1       0.4113312141E-03       4    8    1         0.1588088923E-01      0.4701933355E-01
          0                 4           1             4    8     1      -0.3264866789E-04       4    8    1        -0.1272059608E-02      0.3766116902E-02

    ------------------------------------------------
       NWT REQUIRED            4 OUTER ITERATIONS 
       AND A TOTAL OF          7 INNER ITERATIONS.
    ------------------------------------------------

 OUTPUT CONTROL FOR STRESS PERIOD    8   TIME STEP    5
    PRINT BUDGET
    SAVE BUDGET

  HEAD DEP BOUNDS   PERIOD    8   STEP     5
 BOUNDARY      1   LAYER   1   ROW    13   COL     1   RATE   -0.278121    
 BOUNDARY      2   LAYER   1   ROW    14   COL     9   RATE    0.295462    



 STREAM LISTING     PERIOD      8   STEP        5

 LAYER ROW COL. STREAM  RCH.  FLOW INTO     FLOW TO   FLOW OUT OF   OVRLND.     DIRECT     STREAM       STREAM     STREAM     STREAM   STREAMBED  STREAMBED
                SEG.NO.  NO.  STRM. RCH.    AQUIFER    STRM. RCH.    RUNOFF     PRECIP       ET          HEAD       DEPTH      WIDTH   CONDCTNC.   GRADIENT

   1    1    1     1     1    2.5000E+01  2.4590E-01   2.5081E+01  3.270E-01  0.000E+00  0.000E+00  1.09423E+03  1.181E+00  1.307E+01  5.882E-02  1.394E+00
   1    2    2     1     2    2.5081E+01  3.8325E-01   2.5207E+01  5.087E-01  0.000E+00  0.000E+00  1.08924E+03  1.182E+00  1.309E+01  9.164E-02  1.394E+00
   1    3    3     1     3    2.5207E+01  3.2921E-01   2.5313E+01  4.360E-01  0.000E+00  0.000E+00  1.08360E+03  1.184E+00  1.311E+01  7.868E-02  1.395E+00
   1    3    4     1     4    2.5313E+01  3.0510E-01   2.5412E+01  4.033E-01  0.000E+00  0.000E+00  1.07859E+03  1.186E+00  1.313E+01  7.289E-02  1.395E+00
   1    4    5     2     1    1.5412E+01  3.0445E-01   1.5401E+01  2.943E-01  0.000E+00  0.000E+00  1.07284E+03  9.032E-01  1.200E+01  7.800E-02  1.301E+00
   1    5    6     2     2    1.5401E+01  2.3417E-01   1.5394E+01  2.264E-01  0.000E+00  0.000E+00  1.06741E+03  9.028E-01  1.200E+01  6.000E-02  1.301E+00
   1    6    6     2     3    1.5394E+01  2.3415E-01   1.5386E+01  2.264E-01  0.000E+00  0.000E+00  1.06270E+03  9.026E-01  1.200E+01  6.000E-02  1.301E+00
   1    7    6     2     4    1.5386E+01  2.3414E-01   1.5378E+01  2.264E-01  0.000E+00  0.000E+00  1.05798E+03  9.023E-01  1.200E+01  6.000E-02  1.301E+00
   1    8    6     2     5    1.5378E+01  2.3412E-01   1.5370E+01  2.264E-01  0.000E+00  0.000E+00  1.05326E+03  9.020E-01  1.200E+01  6.000E-02  1.301E+00
   1    3    5     3     1    1.0000E+01  2.8252E-01   1.0831E+01  1.114E+00  0.000E+00  0.000E+00  1.07555E+03  1.909E+00  9.636E+00  7.227E-02  1.955E+00
   1    3    6     3     2    1.0831E+01  2.4905E-01   1.1696E+01  1.114E+00  0.000E+00  0.000E+00  1.07264E+03  1.727E+00  8.909E+00  6.682E-02  1.864E+00
   1    3    7     3     3    1.1696E+01  1.9718E-01   1.2501E+01  1.002E+00  0.000E+00  0.000E+00  1.06987E+03  1.555E+00  8.218E+00  5.547E-02  1.777E+00
   1    4    8     3     4    1.2501E+01  2.2567E-01   1.3611E+01  1.336E+00  0.000E+00  0.000E+00  1.06682E+03  1.364E+00  7.455E+00  6.709E-02  1.682E+00
   1    5    8     3     5    1.3611E+01  1.5790E-01   1.4567E+01  1.114E+00  0.000E+00  0.000E+00  1.06362E+03  1.164E+00  6.655E+00  4.991E-02  1.582E+00
   1    6    8     3     6    1.4567E+01  5.5980E-02   1.4957E+01  4.455E-01  0.000E+00  0.000E+00  1.06158E+03  1.036E+00  6.145E+00  1.844E-02  1.518E+00
   1    5   10     4     1    1.0000E+01  9.1028E-02   1.0136E+01  2.273E-01  0.000E+00  0.000E+00  1.07837E+03  6.411E-01  1.000E+01  2.500E-02  1.214E+00
   1    5    9     4     2    1.0136E+01  1.8244E-01   1.0408E+01  4.545E-01  0.000E+00  0.000E+00  1.07156E+03  6.489E-01  1.000E+01  5.000E-02  1.216E+00
   1    6    8     4     3    1.0408E+01  1.2802E-01   1.0599E+01  3.182E-01  0.000E+00  0.000E+00  1.06384E+03  6.576E-01  1.000E+01  3.500E-02  1.219E+00
   1    6    8     5     1    2.5555E+01  4.1771E-01   2.5531E+01  3.933E-01  0.000E+00  0.000E+00  1.05893E+03  9.325E-01  2.656E+01  1.062E-01  1.311E+00
   1    7    7     5     2    2.5531E+01  5.2176E-01   2.5501E+01  4.917E-01  0.000E+00  0.000E+00  1.05443E+03  9.322E-01  2.654E+01  1.327E-01  1.311E+00
   1    8    7     5     3    2.5501E+01  3.6499E-01   2.5480E+01  3.442E-01  0.000E+00  0.000E+00  1.05018E+03  9.319E-01  2.652E+01  9.283E-02  1.311E+00
   1    8    6     5     4    2.5480E+01  2.6058E-01   2.5465E+01  2.458E-01  0.000E+00  0.000E+00  1.04718E+03  9.316E-01  2.651E+01  6.628E-02  1.311E+00
   1    9    6     6     1    4.0836E+01  2.7871E-01   4.1341E+01  7.841E-01  0.000E+00  0.000E+00  1.04437E+03  1.645E+00  1.200E+01  6.000E-02  1.548E+00
   1   10    7     6     2    4.1341E+01  2.7943E-01   4.1846E+01  7.841E-01  0.000E+00  0.000E+00  1.03984E+03  1.657E+00  1.200E+01  6.000E-02  1.552E+00
   1   11    7     6     3    4.1846E+01  2.8016E-01   4.2350E+01  7.841E-01  0.000E+00  0.000E+00  1.03531E+03  1.669E+00  1.200E+01  6.000E-02  1.556E+00
   1   12    7     6     4    4.2350E+01  2.8087E-01   4.2853E+01  7.841E-01  0.000E+00  0.000E+00  1.03077E+03  1.681E+00  1.200E+01  6.000E-02  1.560E+00
   1   13    7     6     5    4.2853E+01  4.6612E-02   4.3120E+01  3.136E-01  0.000E+00  0.000E+00  1.02760E+03  1.690E+00  1.200E+01  2.400E-02  6.474E-01
   1   14    9     7     1    1.5000E+02  1.4797E+00   1.4925E+02  7.339E-01  0.000E+00  0.000E+00  1.03987E+03  2.289E+00  5.530E+01  5.594E-01  8.818E-01
   1   13    8     7     2    1.4925E+02  2.2928E+00   1.4777E+02  8.073E-01  0.000E+00  0.000E+00  1.03478E+03  2.283E+00  5.528E+01  6.150E-01  1.243E+00
   1   13    7     7     3    1.4777E+02  2.2557E+00   1.4625E+02  7.339E-01  0.000E+00  0.000E+00  1.02969E+03  2.275E+00  5.524E+01  5.587E-01  1.346E+00
   1   13    6     8     1    1.8937E+02  1.8714E+00   1.9147E+02  3.978E+00  0.000E+00  0.000E+00  1.02496E+03  3.080E+00  4.467E+01  4.552E-01  1.370E+00
   1   13    5     8     2    1.9147E+02  1.3038E+00   1.9415E+02  3.978E+00  0.000E+00  0.000E+00  1.01872E+03  3.095E+00  4.488E+01  4.573E-01  9.504E-01
   1   13    4     8     3    1.9415E+02  3.9872E-01   1.9773E+02  3.978E+00  0.000E+00  0.000E+00  1.01249E+03  3.114E+00  4.515E+01  4.601E-01  2.889E-01
   1   13    3     8     4    1.9773E+02 -8.8753E-01   2.0259E+02  3.978E+00  0.000E+00  0.000E+00  1.00626E+03  3.139E+00  4.551E+01  4.638E+00 -6.379E-02
   1   13    2     8     5    2.0259E+02 -8.7040E-01   2.0744E+02  3.978E+00  0.000E+00  0.000E+00  1.00004E+03  3.167E+00  4.592E+01  4.680E+00 -6.200E-02
   1   13    1     8     6    2.0744E+02 -7.1856E-01   2.1054E+02  2.387E+00  0.000E+00  0.000E+00  9.95065E+02  3.190E+00  4.625E+01  2.828E+00 -8.470E-02



 UBDSV3 SAVING "     NETRECHARGE" ON UNIT 100 AT TIME STEP  5, STRESS PERIOD   8
 UBDSV3 SAVING "    NETDISCHARGE" ON UNIT 101 AT TIME STEP  5, STRESS PERIOD   8
 UBDSV3 SAVING "           GW ET" ON UNIT  61 AT TIME STEP  5, STRESS PERIOD   8
 UBDSV3 SAVING "    UZF RECHARGE" ON UNIT  61 AT TIME STEP  5, STRESS PERIOD   8
 UBDSV3 SAVING " SURFACE LEAKAGE" ON UNIT  61 AT TIME STEP  5, STRESS PERIOD   8
 UBDSV3 SAVING "       HORT+DUNN" ON UNIT  61 AT TIME STEP  5, STRESS PERIOD   8
 UBDSV3 SAVING "  STORAGE CHANGE" ON UNIT  61 AT TIME STEP  5, STRESS PERIOD   8


UNSATURATED ZONE PACKAGE VOLUMETRIC BUDGET FOR  TIME STEP     5 STRESS PERIOD    8
  ------------------------------------------------------------------------------



     CUMULATIVE VOLUMES      L**3       RATES FOR THIS TIME STEP      L**3/T
     ------------------                 ------------------------

           IN:                                      IN:
           ---                                      ---
        INFILTRATION =    54812812.6318          INFILTRATION =           2.9000

          OUT:                                     OUT:
          ----                                     ----
              UZF ET =    14594196.8993                UZF ET =           1.1723
        UZF RECHARGE =     7879692.3965          UZF RECHARGE =       0.0000E+00

            IN - OUT =    32338923.3360              IN - OUT =           1.7277

          STORAGE:                                 STORAGE:
          --------                                 --------
      STORAGE CHANGE =    32338918.6925        STORAGE CHANGE =           1.7277

 PERCENT DISCREPANCY IS DIFFERENCE BETWEEN IN-OUT MINUS CHANGE IN STORAGE
 DIVIDED BY THE AVERAGE OF IN AND OUT TIMES 100

 PERCENT DISCREPANCY =           0.00     PERCENT DISCREPANCY =           0.00






1
  VOLUMETRIC BUDGET FOR ENTIRE MODEL AT END OF TIME STEP    5, STRESS PERIOD   8
  ------------------------------------------------------------------------------

     CUMULATIVE VOLUMES      L**3       RATES FOR THIS TIME STEP      L**3/T
     ------------------                 ------------------------

           IN:                                      IN:
           ---                                      ---
             STORAGE =   393771104.0000               STORAGE =           8.3225
       CONSTANT HEAD =           0.0000         CONSTANT HEAD =           0.0000
               WELLS =           0.0000                 WELLS =           0.0000
     HEAD DEP BOUNDS =     5566994.5000       HEAD DEP BOUNDS =           0.2955
      STREAM LEAKAGE =   308459200.0000        STREAM LEAKAGE =          16.4073
        UZF RECHARGE =     7879697.5000          UZF RECHARGE =           0.0000
               GW ET =           0.0000                 GW ET =           0.0000
     SURFACE LEAKAGE =           0.0000       SURFACE LEAKAGE =           0.0000

            TOTAL IN =   715676992.0000              TOTAL IN =          25.0252

          OUT:                                     OUT:
          ----                                     ----
             STORAGE =    67500616.0000               STORAGE =          16.1230
       CONSTANT HEAD =           0.0000         CONSTANT HEAD =           0.0000
               WELLS =   473040000.0000                 WELLS =           0.0000
     HEAD DEP BOUNDS =     5401996.0000       HEAD DEP BOUNDS =           0.2781
      STREAM LEAKAGE =    66038104.0000        STREAM LEAKAGE =           2.4765
        UZF RECHARGE =           0.0000          UZF RECHARGE =           0.0000
               GW ET =   103710880.0000                 GW ET =           6.1472
     SURFACE LEAKAGE =           0.0000       SURFACE LEAKAGE =           0.0000

           TOTAL OUT =   715691520.0000             TOTAL OUT =          25.0248

            IN - OUT =      -14528.0000              IN - OUT =       3.9864E-04

 PERCENT DISCREPANCY =          -0.00     PERCENT DISCREPANCY =           0.00






         TIME SUMMARY AT END OF TIME STEP    5 IN STRESS PERIOD    8
                    SECONDS     MINUTES      HOURS       DAYS        YEARS
                    -----------------------------------------------------------
   TIME STEP LENGTH 1.21100E+05  2018.3      33.639      1.4016     3.83743E-03
 STRESS PERIOD TIME 5.04972E+05  8416.2      140.27      5.8446     1.60016E-02
         TOTAL TIME 1.89010E+07 3.15016E+05  5250.3      218.76     0.59894    
1
 
 SOLVING FOR HEAD 
                                                   Max.-Head-Change                         Max.-Flux-Residual
  Residual-Control   Outer-Iter.   Inner-Iter.     Column Row Layer    Maximum-Head-Change  Column Row Layer    Maximum-Flux-Residual          L2-NORM 
          0                 1           2             4    8     1       0.5073302725E-01       4    8    1         0.1750239659E+01      0.5123267603E+01
          0                 2           2             4    8     1      -0.5027206640E-02       4    8    1        -0.1750250320E+00      0.5123165210E+00
          0                 3           2             4    8     1       0.4483390153E-03       4    8    1         0.1575224435E-01      0.4610740178E-01
          0                 4           1             4    8     1      -0.3558609538E-04       4    8    1        -0.1261755183E-02      0.3693102941E-02

    ------------------------------------------------
       NWT REQUIRED            4 OUTER ITERATIONS 
       AND A TOTAL OF          7 INNER ITERATIONS.
    ------------------------------------------------

 NO OUTPUT CONTROL FOR STRESS PERIOD    8   TIME STEP    6
 
 SOLVING FOR HEAD 
                                                   Max.-Head-Change                         Max.-Flux-Residual
  Residual-Control   Outer-Iter.   Inner-Iter.     Column Row Layer    Maximum-Head-Change  Column Row Layer    Maximum-Flux-Residual          L2-NORM 
          0                 1           2             4    8     1       0.5523338894E-01       4    8    1         0.1734279614E+01      0.5018116139E+01
          0                 2           2             4    8     1      -0.5473160112E-02       4    8    1        -0.1734292662E+00      0.5018045678E+00
          0                 3           2             4    8     1       0.4881102126E-03       4    8    1         0.1560862310E-01      0.4516154050E-01
          0                 4           1             4    8     1      -0.3874286299E-04       4    8    1        -0.1250251136E-02      0.3617379073E-02

    ------------------------------------------------
       NWT REQUIRED            4 OUTER ITERATIONS 
       AND A TOTAL OF          7 INNER ITERATIONS.
    ------------------------------------------------

 NO OUTPUT CONTROL FOR STRESS PERIOD    8   TIME STEP    7
 
 SOLVING FOR HEAD 
                                                   Max.-Head-Change                         Max.-Flux-Residual
  Residual-Control   Outer-Iter.   Inner-Iter.     Column Row Layer    Maximum-Head-Change  Column Row Layer    Maximum-Flux-Residual          L2-NORM 
          0                 1           2             4    8     1       0.6005446390E-01       4    8    1         0.1716478434E+01      0.4909337071E+01
          0                 2           2             4    8     1      -0.5950896429E-02       4    8    1        -0.1716494462E+00      0.4909295914E+00
          0                 3           2             4    8     1       0.5307158543E-03       4    8    1         0.1544843634E-01      0.4418303733E-01
          0                 4           1             4    8     1      -0.4212460846E-04       4    8    1        -0.1237420183E-02      0.3538994767E-02

    ------------------------------------------------
       NWT REQUIRED            4 OUTER ITERATIONS 
       AND A TOTAL OF          7 INNER ITERATIONS.
    ------------------------------------------------

 NO OUTPUT CONTROL FOR STRESS PERIOD    8   TIME STEP    8
 
 SOLVING FOR HEAD 
                                                   Max.-Head-Change                         Max.-Flux-Residual
  Residual-Control   Outer-Iter.   Inner-Iter.     Column Row Layer    Maximum-Head-Change  Column Row Layer    Maximum-Flux-Residual          L2-NORM 
          0                 1           2             4    8     1       0.6520020427E-01       4    8    1         0.1696639038E+01      0.4797080131E+01
          0                 2           2             4    8     1      -0.6460808269E-02       4    8    1        -0.1696658767E+00      0.4797065445E+00
          0                 3           2             4    8     1       0.5761909516E-03       4    8    1         0.1526991143E-01      0.4317320617E-01
          0                 4           1             4    8     1      -0.4573411288E-04       4    8    1        -0.1223120363E-02      0.3458164060E-02

    ------------------------------------------------
       NWT REQUIRED            4 OUTER ITERATIONS 
       AND A TOTAL OF          7 INNER ITERATIONS.
    ------------------------------------------------

 NO OUTPUT CONTROL FOR STRESS PERIOD    8   TIME STEP    9
 
 SOLVING FOR HEAD 
                                                   Max.-Head-Change                         Max.-Flux-Residual
  Residual-Control   Outer-Iter.   Inner-Iter.     Column Row Layer    Maximum-Head-Change  Column Row Layer    Maximum-Flux-Residual          L2-NORM 
          0                 1           2             4    8     1       0.7066968941E-01       4    8    1         0.1674557135E+01      0.4681487939E+01
          0                 2           2             4    8     1      -0.7002805767E-02       4    8    1        -0.1674581430E+00      0.4681494462E+00
          0                 3           2             4    8     1       0.6245274763E-03       4    8    1         0.1507121088E-01      0.4213320756E-01
          0                 4           1             4    8     1      -0.4957073817E-04       4    8    1        -0.1207204480E-02      0.3374879946E-02

    ------------------------------------------------
       NWT REQUIRED            4 OUTER ITERATIONS 
       AND A TOTAL OF          7 INNER ITERATIONS.
    ------------------------------------------------

 OUTPUT CONTROL FOR STRESS PERIOD    8   TIME STEP   10
    PRINT BUDGET
    SAVE BUDGET

  HEAD DEP BOUNDS   PERIOD    8   STEP    10
 BOUNDARY      1   LAYER   1   ROW    13   COL     1   RATE   -0.278306    
 BOUNDARY      2   LAYER   1   ROW    14   COL     9   RATE    0.295530    



 STREAM LISTING     PERIOD      8   STEP       10

 LAYER ROW COL. STREAM  RCH.  FLOW INTO     FLOW TO   FLOW OUT OF   OVRLND.     DIRECT     STREAM       STREAM     STREAM     STREAM   STREAMBED  STREAMBED
                SEG.NO.  NO.  STRM. RCH.    AQUIFER    STRM. RCH.    RUNOFF     PRECIP       ET          HEAD       DEPTH      WIDTH   CONDCTNC.   GRADIENT

   1    1    1     1     1    2.5000E+01  2.4590E-01   2.5081E+01  3.270E-01  0.000E+00  0.000E+00  1.09423E+03  1.181E+00  1.307E+01  5.882E-02  1.394E+00
   1    2    2     1     2    2.5081E+01  3.8325E-01   2.5207E+01  5.087E-01  0.000E+00  0.000E+00  1.08924E+03  1.182E+00  1.309E+01  9.164E-02  1.394E+00
   1    3    3     1     3    2.5207E+01  3.2921E-01   2.5313E+01  4.360E-01  0.000E+00  0.000E+00  1.08360E+03  1.184E+00  1.311E+01  7.868E-02  1.395E+00
   1    3    4     1     4    2.5313E+01  3.0510E-01   2.5412E+01  4.033E-01  0.000E+00  0.000E+00  1.07859E+03  1.186E+00  1.313E+01  7.289E-02  1.395E+00
   1    4    5     2     1    1.5412E+01  3.0445E-01   1.5401E+01  2.943E-01  0.000E+00  0.000E+00  1.07284E+03  9.032E-01  1.200E+01  7.800E-02  1.301E+00
   1    5    6     2     2    1.5401E+01  2.3417E-01   1.5394E+01  2.264E-01  0.000E+00  0.000E+00  1.06741E+03  9.028E-01  1.200E+01  6.000E-02  1.301E+00
   1    6    6     2     3    1.5394E+01  2.3415E-01   1.5386E+01  2.264E-01  0.000E+00  0.000E+00  1.06270E+03  9.026E-01  1.200E+01  6.000E-02  1.301E+00
   1    7    6     2     4    1.5386E+01  2.3414E-01   1.5378E+01  2.264E-01  0.000E+00  0.000E+00  1.05798E+03  9.023E-01  1.200E+01  6.000E-02  1.301E+00
   1    8    6     2     5    1.5378E+01  2.3412E-01   1.5370E+01  2.264E-01  0.000E+00  0.000E+00  1.05326E+03  9.020E-01  1.200E+01  6.000E-02  1.301E+00
   1    3    5     3     1    1.0000E+01  2.8252E-01   1.0831E+01  1.114E+00  0.000E+00  0.000E+00  1.07555E+03  1.909E+00  9.636E+00  7.227E-02  1.955E+00
   1    3    6     3     2    1.0831E+01  2.4905E-01   1.1696E+01  1.114E+00  0.000E+00  0.000E+00  1.07264E+03  1.727E+00  8.909E+00  6.682E-02  1.864E+00
   1    3    7     3     3    1.1696E+01  1.9718E-01   1.2501E+01  1.002E+00  0.000E+00  0.000E+00  1.06987E+03  1.555E+00  8.218E+00  5.547E-02  1.777E+00
   1    4    8     3     4    1.2501E+01  2.2567E-01   1.3611E+01  1.336E+00  0.000E+00  0.000E+00  1.06682E+03  1.364E+00  7.455E+00  6.709E-02  1.682E+00
   1    5    8     3     5    1.3611E+01  1.5790E-01   1.4567E+01  1.114E+00  0.000E+00  0.000E+00  1.06362E+03  1.164E+00  6.655E+00  4.991E-02  1.582E+00
   1    6    8     3     6    1.4567E+01  5.5980E-02   1.4957E+01  4.455E-01  0.000E+00  0.000E+00  1.06158E+03  1.036E+00  6.145E+00  1.844E-02  1.518E+00
   1    5   10     4     1    1.0000E+01  9.1028E-02   1.0136E+01  2.273E-01  0.000E+00  0.000E+00  1.07837E+03  6.411E-01  1.000E+01  2.500E-02  1.214E+00
   1    5    9     4     2    1.0136E+01  1.8244E-01   1.0408E+01  4.545E-01  0.000E+00  0.000E+00  1.07156E+03  6.489E-01  1.000E+01  5.000E-02  1.216E+00
   1    6    8     4     3    1.0408E+01  1.2802E-01   1.0599E+01  3.182E-01  0.000E+00  0.000E+00  1.06384E+03  6.576E-01  1.000E+01  3.500E-02  1.219E+00
   1    6    8     5     1    2.5555E+01  4.1771E-01   2.5531E+01  3.933E-01  0.000E+00  0.000E+00  1.05893E+03  9.325E-01  2.656E+01  1.062E-01  1.311E+00
   1    7    7     5     2    2.5531E+01  5.2176E-01   2.5501E+01  4.917E-01  0.000E+00  0.000E+00  1.05443E+03  9.322E-01  2.654E+01  1.327E-01  1.311E+00
   1    8    7     5     3    2.5501E+01  3.6499E-01   2.5480E+01  3.442E-01  0.000E+00  0.000E+00  1.05018E+03  9.319E-01  2.652E+01  9.283E-02  1.311E+00
   1    8    6     5     4    2.5480E+01  2.6058E-01   2.5465E+01  2.458E-01  0.000E+00  0.000E+00  1.04718E+03  9.316E-01  2.651E+01  6.628E-02  1.311E+00
   1    9    6     6     1    4.0836E+01  2.7871E-01   4.1341E+01  7.841E-01  0.000E+00  0.000E+00  1.04437E+03  1.645E+00  1.200E+01  6.000E-02  1.548E+00
   1   10    7     6     2    4.1341E+01  2.7943E-01   4.1846E+01  7.841E-01  0.000E+00  0.000E+00  1.03984E+03  1.657E+00  1.200E+01  6.000E-02  1.552E+00
   1   11    7     6     3    4.1846E+01  2.8016E-01   4.2350E+01  7.841E-01  0.000E+00  0.000E+00  1.03531E+03  1.669E+00  1.200E+01  6.000E-02  1.556E+00
   1   12    7     6     4    4.2350E+01  2.8087E-01   4.2853E+01  7.841E-01  0.000E+00  0.000E+00  1.03077E+03  1.681E+00  1.200E+01  6.000E-02  1.560E+00
   1   13    7     6     5    4.2853E+01  4.6983E-02   4.3120E+01  3.136E-01  0.000E+00  0.000E+00  1.02760E+03  1.690E+00  1.200E+01  2.400E-02  6.525E-01
   1   14    9     7     1    1.5000E+02  1.4807E+00   1.4925E+02  7.339E-01  0.000E+00  0.000E+00  1.03987E+03  2.289E+00  5.530E+01  5.594E-01  8.824E-01
   1   13    8     7     2    1.4925E+02  2.2966E+00   1.4776E+02  8.073E-01  0.000E+00  0.000E+00  1.03478E+03  2.283E+00  5.528E+01  6.150E-01  1.245E+00
   1   13    7     7     3    1.4776E+02  2.2643E+00   1.4623E+02  7.339E-01  0.000E+00  0.000E+00  1.02969E+03  2.275E+00  5.524E+01  5.587E-01  1.351E+00
   1   13    6     8     1    1.8935E+02  1.8810E+00   1.9145E+02  3.978E+00  0.000E+00  0.000E+00  1.02496E+03  3.080E+00  4.467E+01  4.552E-01  1.378E+00
   1   13    5     8     2    1.9145E+02  1.3145E+00   1.9411E+02  3.978E+00  0.000E+00  0.000E+00  1.01872E+03  3.095E+00  4.487E+01  4.573E-01  9.582E-01
   1   13    4     8     3    1.9411E+02  4.0819E-01   1.9768E+02  3.978E+00  0.000E+00  0.000E+00  1.01249E+03  3.113E+00  4.514E+01  4.600E-01  2.958E-01
   1   13    3     8     4    1.9768E+02 -9.2674E-01   2.0259E+02  3.978E+00  0.000E+00  0.000E+00  1.00626E+03  3.139E+00  4.551E+01  4.637E+00 -6.661E-02
   1   13    2     8     5    2.0259E+02 -9.3714E-01   2.0750E+02  3.978E+00  0.000E+00  0.000E+00  1.00004E+03  3.167E+00  4.592E+01  4.680E+00 -6.675E-02
   1   13    1     8     6    2.0750E+02 -7.3130E-01   2.1062E+02  2.387E+00  0.000E+00  0.000E+00  9.95065E+02  3.190E+00  4.626E+01  2.828E+00 -8.619E-02



 UBDSV3 SAVING "     NETRECHARGE" ON UNIT 100 AT TIME STEP 10, STRESS PERIOD   8
 UBDSV3 SAVING "    NETDISCHARGE" ON UNIT 101 AT TIME STEP 10, STRESS PERIOD   8
 UBDSV3 SAVING "           GW ET" ON UNIT  61 AT TIME STEP 10, STRESS PERIOD   8
 UBDSV3 SAVING "    UZF RECHARGE" ON UNIT  61 AT TIME STEP 10, STRESS PERIOD   8
 UBDSV3 SAVING " SURFACE LEAKAGE" ON UNIT  61 AT TIME STEP 10, STRESS PERIOD   8
 UBDSV3 SAVING "       HORT+DUNN" ON UNIT  61 AT TIME STEP 10, STRESS PERIOD   8
 UBDSV3 SAVING "  STORAGE CHANGE" ON UNIT  61 AT TIME STEP 10, STRESS PERIOD   8


UNSATURATED ZONE PACKAGE VOLUMETRIC BUDGET FOR  TIME STEP    10 STRESS PERIOD    8
  ------------------------------------------------------------------------------



     CUMULATIVE VOLUMES      L**3       RATES FOR THIS TIME STEP      L**3/T
     ------------------                 ------------------------

           IN:                                      IN:
           ---                                      ---
        INFILTRATION =    57171271.8994          INFILTRATION =           2.9000

          OUT:                                     OUT:
          ----                                     ----
              UZF ET =    15545801.2257                UZF ET =           1.1603
        UZF RECHARGE =     7879692.3965          UZF RECHARGE =       0.0000E+00

            IN - OUT =    33745778.2772              IN - OUT =           1.7397

          STORAGE:                                 STORAGE:
          --------                                 --------
      STORAGE CHANGE =    33745773.6125        STORAGE CHANGE =           1.7397

 PERCENT DISCREPANCY IS DIFFERENCE BETWEEN IN-OUT MINUS CHANGE IN STORAGE
 DIVIDED BY THE AVERAGE OF IN AND OUT TIMES 100

 PERCENT DISCREPANCY =           0.00     PERCENT DISCREPANCY =           0.00






1
  VOLUMETRIC BUDGET FOR ENTIRE MODEL AT END OF TIME STEP   10, STRESS PERIOD   8
  ------------------------------------------------------------------------------

     CUMULATIVE VOLUMES      L**3       RATES FOR THIS TIME STEP      L**3/T
     ------------------                 ------------------------

           IN:                                      IN:
           ---                                      ---
             STORAGE =   400076992.0000               STORAGE =           7.4458
       CONSTANT HEAD =           0.0000         CONSTANT HEAD =           0.0000
               WELLS =           0.0000                 WELLS =           0.0000
     HEAD DEP BOUNDS =     5807316.0000       HEAD DEP BOUNDS =           0.2955
      STREAM LEAKAGE =   321824128.0000        STREAM LEAKAGE =          16.4508
        UZF RECHARGE =     7879697.5000          UZF RECHARGE =           0.0000
               GW ET =           0.0000                 GW ET =           0.0000
     SURFACE LEAKAGE =           0.0000       SURFACE LEAKAGE =           0.0000

            TOTAL IN =   735588096.0000              TOTAL IN =          24.1921

          OUT:                                     OUT:
          ----                                     ----
             STORAGE =    80106568.0000               STORAGE =          15.1700
       CONSTANT HEAD =           0.0000         CONSTANT HEAD =           0.0000
               WELLS =   473040000.0000                 WELLS =           0.0000
     HEAD DEP BOUNDS =     5628276.5000       HEAD DEP BOUNDS =           0.2783
      STREAM LEAKAGE =    68117296.0000        STREAM LEAKAGE =           2.5952
        UZF RECHARGE =           0.0000          UZF RECHARGE =           0.0000
               GW ET =   108710296.0000                 GW ET =           6.1482
     SURFACE LEAKAGE =           0.0000       SURFACE LEAKAGE =           0.0000

           TOTAL OUT =   735602432.0000             TOTAL OUT =          24.1917

            IN - OUT =      -14336.0000              IN - OUT =       3.9673E-04

 PERCENT DISCREPANCY =          -0.00     PERCENT DISCREPANCY =           0.00






         TIME SUMMARY AT END OF TIME STEP   10 IN STRESS PERIOD    8
                    SECONDS     MINUTES      HOURS       DAYS        YEARS
                    -----------------------------------------------------------
   TIME STEP LENGTH 1.95033E+05  3250.6      54.176      2.2573     6.18023E-03
 STRESS PERIOD TIME 1.31823E+06  21971.      366.18      15.257     4.17723E-02
         TOTAL TIME 1.97142E+07 3.28570E+05  5476.2      228.17     0.62471    
1
 
 SOLVING FOR HEAD 
                                                   Max.-Head-Change                         Max.-Flux-Residual
  Residual-Control   Outer-Iter.   Inner-Iter.     Column Row Layer    Maximum-Head-Change  Column Row Layer    Maximum-Flux-Residual          L2-NORM 
          0                 1           2             4    8     1       0.7645613901E-01       4    8    1         0.1650027906E+01      0.4562718671E+01
          0                 2           2             4    8     1      -0.7576225609E-02       4    8    1        -0.1650057792E+00      0.4564093296E+00
          0                 3           2             4    8     1       0.6756662550E-03       4    8    1         0.1485049263E-01      0.4107666166E-01
          0                 4           1             4    8     1      -0.5362978837E-04       4    8    1        -0.1189525002E-02      0.3290234270E-02

    ------------------------------------------------
       NWT REQUIRED            4 OUTER ITERATIONS 
       AND A TOTAL OF          7 INNER ITERATIONS.
    ------------------------------------------------

 NO OUTPUT CONTROL FOR STRESS PERIOD    8   TIME STEP   11
 
 SOLVING FOR HEAD 
                                                   Max.-Head-Change                         Max.-Flux-Residual
  Residual-Control   Outer-Iter.   Inner-Iter.     Column Row Layer    Maximum-Head-Change  Column Row Layer    Maximum-Flux-Residual          L2-NORM 
          0                 1           2             4    8     1       0.8254566811E-01       4    8    1         0.1622850015E+01      0.4440866827E+01
          0                 2           2             4    8     1      -0.8179673718E-02       4    8    1        -0.1622886689E+00      0.4440909156E+00
          0                 3           2             4    8     1       0.7294829383E-03       4    8    1         0.1460594600E-01      0.3996804080E-01
          0                 4           1             4    8     1      -0.5790139253E-04       4    8    1        -0.1169936864E-02      0.3201420317E-02

    ------------------------------------------------
       NWT REQUIRED            4 OUTER ITERATIONS 
       AND A TOTAL OF          7 INNER ITERATIONS.
    ------------------------------------------------

 NO OUTPUT CONTROL FOR STRESS PERIOD    8   TIME STEP   12
 
 SOLVING FOR HEAD 
                                                   Max.-Head-Change                         Max.-Flux-Residual
  Residual-Control   Outer-Iter.   Inner-Iter.     Column Row Layer    Maximum-Head-Change  Column Row Layer    Maximum-Flux-Residual          L2-NORM 
          0                 1           2             4    8     1       0.8891590998E-01       4    8    1         0.1592822141E+01      0.4315524739E+01
          0                 2           2             4    8     1      -0.8810956670E-02       4    8    1        -0.1592866966E+00      0.4315575429E+00
          0                 3           2             4    8     1       0.7857818857E-03       4    8    1         0.1433576046E-01      0.3884005101E-01
          0                 4           1             4    8     1      -0.6237002186E-04       4    8    1        -0.1148295053E-02      0.3111112371E-02

    ------------------------------------------------
       NWT REQUIRED            4 OUTER ITERATIONS 
       AND A TOTAL OF          7 INNER ITERATIONS.
    ------------------------------------------------

 NO OUTPUT CONTROL FOR STRESS PERIOD    8   TIME STEP   13
 
 SOLVING FOR HEAD 
                                                   Max.-Head-Change                         Max.-Flux-Residual
  Residual-Control   Outer-Iter.   Inner-Iter.     Column Row Layer    Maximum-Head-Change  Column Row Layer    Maximum-Flux-Residual          L2-NORM 
          0                 1           2             4    8     1       0.9553578038E-01       4    8    1         0.1559769611E+01      0.4187562454E+01
          0                 2           2             4    8     1      -0.9466990606E-02       4    8    1        -0.1559824101E+00      0.4187617992E+00
          0                 3           2             4    8     1       0.8442880403E-03       4    8    1         0.1403836515E-01      0.3768837789E-01
          0                 4           1             4    8     1      -0.6701384582E-04       4    8    1        -0.1124473763E-02      0.3018802877E-02

    ------------------------------------------------
       NWT REQUIRED            4 OUTER ITERATIONS 
       AND A TOTAL OF          7 INNER ITERATIONS.
    ------------------------------------------------

 NO OUTPUT CONTROL FOR STRESS PERIOD    8   TIME STEP   14
 
 SOLVING FOR HEAD 
                                                   Max.-Head-Change                         Max.-Flux-Residual
  Residual-Control   Outer-Iter.   Inner-Iter.     Column Row Layer    Maximum-Head-Change  Column Row Layer    Maximum-Flux-Residual          L2-NORM 
          0                 1           2             4    8     1       0.1023640142E+00       4    8    1         0.1523538650E+01      0.4057172097E+01
          0                 2           2             4    8     1      -0.1014368998E-01       4    8    1        -0.1523604436E+00      0.4057230096E+00
          0                 3           2             4    8     1       0.9046370077E-03       4    8    1         0.1371237702E-01      0.3651484072E-01
          0                 4           1             4    8     1      -0.7180394062E-04       4    8    1        -0.1098362193E-02      0.2924811762E-02

    ------------------------------------------------
       NWT REQUIRED            4 OUTER ITERATIONS 
       AND A TOTAL OF          7 INNER ITERATIONS.
    ------------------------------------------------

 OUTPUT CONTROL FOR STRESS PERIOD    8   TIME STEP   15
    PRINT BUDGET
    PRINT HEAD FOR ALL LAYERS
    SAVE HEAD FOR ALL LAYERS
    SAVE BUDGET

  HEAD DEP BOUNDS   PERIOD    8   STEP    15
 BOUNDARY      1   LAYER   1   ROW    13   COL     1   RATE   -0.278477    
 BOUNDARY      2   LAYER   1   ROW    14   COL     9   RATE    0.295638    



 STREAM LISTING     PERIOD      8   STEP       15

 LAYER ROW COL. STREAM  RCH.  FLOW INTO     FLOW TO   FLOW OUT OF   OVRLND.     DIRECT     STREAM       STREAM     STREAM     STREAM   STREAMBED  STREAMBED
                SEG.NO.  NO.  STRM. RCH.    AQUIFER    STRM. RCH.    RUNOFF     PRECIP       ET          HEAD       DEPTH      WIDTH   CONDCTNC.   GRADIENT

   1    1    1     1     1    2.5000E+01  2.4590E-01   2.5081E+01  3.270E-01  0.000E+00  0.000E+00  1.09423E+03  1.181E+00  1.307E+01  5.882E-02  1.394E+00
   1    2    2     1     2    2.5081E+01  3.8325E-01   2.5207E+01  5.087E-01  0.000E+00  0.000E+00  1.08924E+03  1.182E+00  1.309E+01  9.164E-02  1.394E+00
   1    3    3     1     3    2.5207E+01  3.2921E-01   2.5313E+01  4.360E-01  0.000E+00  0.000E+00  1.08360E+03  1.184E+00  1.311E+01  7.868E-02  1.395E+00
   1    3    4     1     4    2.5313E+01  3.0510E-01   2.5412E+01  4.033E-01  0.000E+00  0.000E+00  1.07859E+03  1.186E+00  1.313E+01  7.289E-02  1.395E+00
   1    4    5     2     1    1.5412E+01  3.0445E-01   1.5401E+01  2.943E-01  0.000E+00  0.000E+00  1.07284E+03  9.032E-01  1.200E+01  7.800E-02  1.301E+00
   1    5    6     2     2    1.5401E+01  2.3417E-01   1.5394E+01  2.264E-01  0.000E+00  0.000E+00  1.06741E+03  9.028E-01  1.200E+01  6.000E-02  1.301E+00
   1    6    6     2     3    1.5394E+01  2.3415E-01   1.5386E+01  2.264E-01  0.000E+00  0.000E+00  1.06270E+03  9.026E-01  1.200E+01  6.000E-02  1.301E+00
   1    7    6     2     4    1.5386E+01  2.3414E-01   1.5378E+01  2.264E-01  0.000E+00  0.000E+00  1.05798E+03  9.023E-01  1.200E+01  6.000E-02  1.301E+00
   1    8    6     2     5    1.5378E+01  2.3412E-01   1.5370E+01  2.264E-01  0.000E+00  0.000E+00  1.05326E+03  9.020E-01  1.200E+01  6.000E-02  1.301E+00
   1    3    5     3     1    1.0000E+01  2.8252E-01   1.0831E+01  1.114E+00  0.000E+00  0.000E+00  1.07555E+03  1.909E+00  9.636E+00  7.227E-02  1.955E+00
   1    3    6     3     2    1.0831E+01  2.4905E-01   1.1696E+01  1.114E+00  0.000E+00  0.000E+00  1.07264E+03  1.727E+00  8.909E+00  6.682E-02  1.864E+00
   1    3    7     3     3    1.1696E+01  1.9718E-01   1.2501E+01  1.002E+00  0.000E+00  0.000E+00  1.06987E+03  1.555E+00  8.218E+00  5.547E-02  1.777E+00
   1    4    8     3     4    1.2501E+01  2.2567E-01   1.3611E+01  1.336E+00  0.000E+00  0.000E+00  1.06682E+03  1.364E+00  7.455E+00  6.709E-02  1.682E+00
   1    5    8     3     5    1.3611E+01  1.5790E-01   1.4567E+01  1.114E+00  0.000E+00  0.000E+00  1.06362E+03  1.164E+00  6.655E+00  4.991E-02  1.582E+00
   1    6    8     3     6    1.4567E+01  5.5980E-02   1.4957E+01  4.455E-01  0.000E+00  0.000E+00  1.06158E+03  1.036E+00  6.145E+00  1.844E-02  1.518E+00
   1    5   10     4     1    1.0000E+01  9.1028E-02   1.0136E+01  2.273E-01  0.000E+00  0.000E+00  1.07837E+03  6.411E-01  1.000E+01  2.500E-02  1.214E+00
   1    5    9     4     2    1.0136E+01  1.8244E-01   1.0408E+01  4.545E-01  0.000E+00  0.000E+00  1.07156E+03  6.489E-01  1.000E+01  5.000E-02  1.216E+00
   1    6    8     4     3    1.0408E+01  1.2802E-01   1.0599E+01  3.182E-01  0.000E+00  0.000E+00  1.06384E+03  6.576E-01  1.000E+01  3.500E-02  1.219E+00
   1    6    8     5     1    2.5555E+01  4.1771E-01   2.5531E+01  3.933E-01  0.000E+00  0.000E+00  1.05893E+03  9.325E-01  2.656E+01  1.062E-01  1.311E+00
   1    7    7     5     2    2.5531E+01  5.2176E-01   2.5501E+01  4.917E-01  0.000E+00  0.000E+00  1.05443E+03  9.322E-01  2.654E+01  1.327E-01  1.311E+00
   1    8    7     5     3    2.5501E+01  3.6499E-01   2.5480E+01  3.442E-01  0.000E+00  0.000E+00  1.05018E+03  9.319E-01  2.652E+01  9.283E-02  1.311E+00
   1    8    6     5     4    2.5480E+01  2.6058E-01   2.5465E+01  2.458E-01  0.000E+00  0.000E+00  1.04718E+03  9.316E-01  2.651E+01  6.628E-02  1.311E+00
   1    9    6     6     1    4.0836E+01  2.7871E-01   4.1341E+01  7.841E-01  0.000E+00  0.000E+00  1.04437E+03  1.645E+00  1.200E+01  6.000E-02  1.548E+00
   1   10    7     6     2    4.1341E+01  2.7943E-01   4.1846E+01  7.841E-01  0.000E+00  0.000E+00  1.03984E+03  1.657E+00  1.200E+01  6.000E-02  1.552E+00
   1   11    7     6     3    4.1846E+01  2.8016E-01   4.2350E+01  7.841E-01  0.000E+00  0.000E+00  1.03531E+03  1.669E+00  1.200E+01  6.000E-02  1.556E+00
   1   12    7     6     4    4.2350E+01  2.8087E-01   4.2853E+01  7.841E-01  0.000E+00  0.000E+00  1.03077E+03  1.681E+00  1.200E+01  6.000E-02  1.560E+00
   1   13    7     6     5    4.2853E+01  4.7550E-02   4.3119E+01  3.136E-01  0.000E+00  0.000E+00  1.02760E+03  1.690E+00  1.200E+01  2.400E-02  6.604E-01
   1   14    9     7     1    1.5000E+02  1.4823E+00   1.4925E+02  7.339E-01  0.000E+00  0.000E+00  1.03987E+03  2.289E+00  5.530E+01  5.594E-01  8.833E-01
   1   13    8     7     2    1.4925E+02  2.3027E+00   1.4776E+02  8.073E-01  0.000E+00  0.000E+00  1.03478E+03  2.283E+00  5.527E+01  6.150E-01  1.248E+00
   1   13    7     7     3    1.4776E+02  2.2774E+00   1.4621E+02  7.339E-01  0.000E+00  0.000E+00  1.02969E+03  2.275E+00  5.524E+01  5.587E-01  1.359E+00
   1   13    6     8     1    1.8933E+02  1.8953E+00   1.9141E+02  3.978E+00  0.000E+00  0.000E+00  1.02496E+03  3.080E+00  4.466E+01  4.551E-01  1.388E+00
   1   13    5     8     2    1.9141E+02  1.3294E+00   1.9406E+02  3.978E+00  0.000E+00  0.000E+00  1.01872E+03  3.095E+00  4.487E+01  4.572E-01  9.692E-01
   1   13    4     8     3    1.9406E+02  4.2056E-01   1.9762E+02  3.978E+00  0.000E+00  0.000E+00  1.01249E+03  3.113E+00  4.514E+01  4.600E-01  3.048E-01
   1   13    3     8     4    1.9762E+02 -9.2714E-01   2.0252E+02  3.978E+00  0.000E+00  0.000E+00  1.00626E+03  3.138E+00  4.550E+01  4.637E+00 -6.665E-02
   1   13    2     8     5    2.0252E+02 -9.7379E-01   2.0748E+02  3.978E+00  0.000E+00  0.000E+00  1.00004E+03  3.167E+00  4.592E+01  4.679E+00 -6.937E-02
   1   13    1     8     6    2.0748E+02 -7.4432E-01   2.1061E+02  2.387E+00  0.000E+00  0.000E+00  9.95065E+02  3.190E+00  4.626E+01  2.828E+00 -8.772E-02



 UBDSV3 SAVING "     NETRECHARGE" ON UNIT 100 AT TIME STEP 15, STRESS PERIOD   8
 UBDSV3 SAVING "    NETDISCHARGE" ON UNIT 101 AT TIME STEP 15, STRESS PERIOD   8
 UBDSV3 SAVING "           GW ET" ON UNIT  61 AT TIME STEP 15, STRESS PERIOD   8
 UBDSV3 SAVING "    UZF RECHARGE" ON UNIT  61 AT TIME STEP 15, STRESS PERIOD   8
 UBDSV3 SAVING " SURFACE LEAKAGE" ON UNIT  61 AT TIME STEP 15, STRESS PERIOD   8
 UBDSV3 SAVING "       HORT+DUNN" ON UNIT  61 AT TIME STEP 15, STRESS PERIOD   8
 UBDSV3 SAVING "  STORAGE CHANGE" ON UNIT  61 AT TIME STEP 15, STRESS PERIOD   8


UNSATURATED ZONE PACKAGE VOLUMETRIC BUDGET FOR  TIME STEP    15 STRESS PERIOD    8
  ------------------------------------------------------------------------------



     CUMULATIVE VOLUMES      L**3       RATES FOR THIS TIME STEP      L**3/T
     ------------------                 ------------------------

           IN:                                      IN:
           ---                                      ---
        INFILTRATION =    60969594.2510          INFILTRATION =           2.9000

          OUT:                                     OUT:
          ----                                     ----
              UZF ET =    17077222.6471                UZF ET =           1.1749
        UZF RECHARGE =     7879692.3965          UZF RECHARGE =       0.0000E+00

            IN - OUT =    36012679.2073              IN - OUT =           1.7251

          STORAGE:                                 STORAGE:
          --------                                 --------
      STORAGE CHANGE =    36012674.5890        STORAGE CHANGE =           1.7251

 PERCENT DISCREPANCY IS DIFFERENCE BETWEEN IN-OUT MINUS CHANGE IN STORAGE
 DIVIDED BY THE AVERAGE OF IN AND OUT TIMES 100

 PERCENT DISCREPANCY =           0.00     PERCENT DISCREPANCY =           0.00






1
              HEAD IN LAYER   1 AT END OF TIME STEP  15 IN STRESS PERIOD    8
  ---------------------------------------------------------------------------

           1       2       3       4       5       6       7       8       9      10
 ...................................................................................
   1  1032.59 1029.39 6999.00 6999.00 6999.00 6999.00 6999.00 6999.00 6999.00 6999.00
   2  1029.69 1025.42 1023.47 6999.00 6999.00 1022.07 1022.35 1022.51 6999.00 6999.00
   3  6999.00 1022.45 1021.24 1020.19 1020.18 1020.76 1021.55 1021.81 6999.00 6999.00
   4  1020.30 1020.37 1019.45 1018.44 1018.28 1018.47 1019.50 1021.13 1021.10 6999.00
   5  1019.40 1018.56 1017.32 1016.53 1016.79 1017.56 1018.38 1019.44 1020.49 1021.35
   6  1018.47 1017.18 1015.37 1014.65 1015.18 1016.54 1017.81 1019.05 1020.00 1021.26
   7  1017.81 1016.05 1013.94 1013.22 1013.99 1015.69 1017.33 1018.41 1019.74 6999.00
   8  6999.00 1015.07 1013.06 1012.41 1013.32 1015.15 1016.74 1018.32 1020.02 6999.00
   9  6999.00 1014.07 1012.57 1012.22 1013.21 1014.99 1016.56 1018.53 1020.87 6999.00
  10  6999.00 1012.93 1012.33 1012.57 1013.66 1015.51 1017.25 1019.45 1022.07 1022.94
  11  6999.00 1010.93 1011.64 1013.01 1014.55 1016.72 1018.89 1021.61 1024.62 6999.00
  12  1001.14 1006.21 1009.68 1012.49 1015.23 1018.40 1021.34 1025.78 1029.40 6999.00
  13   995.33 1000.25 1006.46 1011.57 1015.81 1020.79 1025.62 1031.04 1034.03 6999.00
  14  6999.00 1005.71 1008.51 1012.65 1016.82 1021.27 1026.46 1032.45 1037.22 6999.00
  15  6999.00 6999.00 1012.11 1014.58 1017.71 1020.52 6999.00 6999.00 6999.00 6999.00

 HEAD WILL BE SAVED ON UNIT   58 AT END OF TIME STEP   15, STRESS PERIOD    8
1
  VOLUMETRIC BUDGET FOR ENTIRE MODEL AT END OF TIME STEP   15, STRESS PERIOD   8
  ------------------------------------------------------------------------------

     CUMULATIVE VOLUMES      L**3       RATES FOR THIS TIME STEP      L**3/T
     ------------------                 ------------------------

           IN:                                      IN:
           ---                                      ---
             STORAGE =   409022688.0000               STORAGE =           6.4438
       CONSTANT HEAD =           0.0000         CONSTANT HEAD =           0.0000
               WELLS =           0.0000                 WELLS =           0.0000
     HEAD DEP BOUNDS =     6194476.5000       HEAD DEP BOUNDS =           0.2956
      STREAM LEAKAGE =   343421344.0000        STREAM LEAKAGE =          16.5138
        UZF RECHARGE =     7879697.5000          UZF RECHARGE =           0.0000
               GW ET =           0.0000                 GW ET =           0.0000
     SURFACE LEAKAGE =           0.0000       SURFACE LEAKAGE =           0.0000

            TOTAL IN =   766518144.0000              TOTAL IN =          23.2533

          OUT:                                     OUT:
          ----                                     ----
             STORAGE =    99171432.0000               STORAGE =          14.1823
       CONSTANT HEAD =           0.0000         CONSTANT HEAD =           0.0000
               WELLS =   473040000.0000                 WELLS =           0.0000
     HEAD DEP BOUNDS =     5992940.5000       HEAD DEP BOUNDS =           0.2785
      STREAM LEAKAGE =    71565648.0000        STREAM LEAKAGE =           2.6452
        UZF RECHARGE =           0.0000          UZF RECHARGE =           0.0000
               GW ET =   116762000.0000                 GW ET =           6.1469
     SURFACE LEAKAGE =           0.0000       SURFACE LEAKAGE =           0.0000

           TOTAL OUT =   766532032.0000             TOTAL OUT =          23.2529

            IN - OUT =      -13888.0000              IN - OUT =       3.9864E-04

 PERCENT DISCREPANCY =          -0.00     PERCENT DISCREPANCY =           0.00






         TIME SUMMARY AT END OF TIME STEP   15 IN STRESS PERIOD    8
                    SECONDS     MINUTES      HOURS       DAYS        YEARS
                    -----------------------------------------------------------
   TIME STEP LENGTH 3.14103E+05  5235.0      87.251      3.6354     9.95332E-03
 STRESS PERIOD TIME 2.62800E+06  43800.      730.00      30.417     8.32763E-02
         TOTAL TIME 2.10240E+07 3.50400E+05  5840.0      243.33     0.66621    
1
1
                            STRESS PERIOD NO.    9, LENGTH =   2628000.    
                            -----------------------------------------------

                              NUMBER OF TIME STEPS =    15

                               MULTIPLIER FOR DELT =     1.100

                            INITIAL TIME STEP SIZE =   82713.07    

 WELL NO.  LAYER   ROW   COL   STRESS RATE         
 --------------------------------------------------
      1      1      6      4      -1.000    
      2      1      6      5      -1.000    
      3      1      7      4      -1.000    
      4      1      7      5      -1.000    
      5      1      8      4      -1.000    
      6      1      8      5      -1.000    
      7      1      9      4      -1.000    
      8      1      9      5      -1.000    
      9      1     10      4      -1.000    
     10      1     10      5      -1.000    

     10 WELLS

 REUSING NON-PARAMETER GHB CELLS FROM LAST STRESS PERIOD

      2 GHB CELLS

 REUSING STREAM SEGMENT DATA FROM LAST STRESS PERIOD



            AREAL INFILTRATION RATE
 READING ON UNIT   19 WITH FORMAT: (10F4.0)            

            1           2           3           4           5           6           7           8           9          10
 ........................................................................................................................
   1   3.0000E-09  6.0000E-09   0.000       0.000       0.000       0.000       0.000       0.000       0.000       0.000    
   2   6.0000E-09  3.0000E-09  6.0000E-09   0.000       0.000      2.4000E-08  2.4000E-08  1.5000E-08   0.000       0.000    
   3    0.000      1.5000E-08  3.0000E-09  3.0000E-09  2.4000E-08  2.4000E-08  1.5000E-08  1.5000E-08   0.000       0.000    
   4   2.4000E-08  1.5000E-08  3.0000E-09  3.0000E-09  3.0000E-09  3.0000E-09  3.0000E-09  3.0000E-09  6.0000E-09   0.000    
   5   2.4000E-08  1.5000E-08  3.0000E-09  3.0000E-09  3.0000E-09  3.0000E-09  3.0000E-09  3.0000E-09  3.0000E-09  3.0000E-09
   6   2.4000E-08  1.5000E-08  1.5000E-08  6.0000E-09  6.0000E-09  3.0000E-09  3.0000E-09  3.0000E-09  3.0000E-09  1.5000E-08
   7   2.4000E-08  1.5000E-08  1.5000E-08  6.0000E-09  6.0000E-09  3.0000E-09  3.0000E-09  6.0000E-09  6.0000E-09   0.000    
   8    0.000      1.5000E-08  1.5000E-08  6.0000E-09  6.0000E-09  3.0000E-09  3.0000E-09  6.0000E-09  1.5000E-08   0.000    
   9    0.000      1.5000E-08  1.5000E-08  6.0000E-09  6.0000E-09  3.0000E-09  3.0000E-09  6.0000E-09  1.5000E-08   0.000    
  10    0.000      1.5000E-08  1.5000E-08  6.0000E-09  6.0000E-09  3.0000E-09  3.0000E-09  6.0000E-09  1.5000E-08  2.4000E-08
  11    0.000      3.0000E-09  3.0000E-09  3.0000E-09  3.0000E-09  3.0000E-09  3.0000E-09  6.0000E-09  1.5000E-08   0.000    
  12   3.0000E-09  3.0000E-09  3.0000E-09  3.0000E-09  3.0000E-09  3.0000E-09  3.0000E-09  3.0000E-09  6.0000E-09   0.000    
  13   3.0000E-09  3.0000E-09  6.0000E-09  6.0000E-09  6.0000E-09  6.0000E-09  6.0000E-09  3.0000E-09  3.0000E-09   0.000    
  14    0.000      6.0000E-09  1.5000E-08  1.5000E-08  1.5000E-08  1.5000E-08  1.5000E-08  6.0000E-09  3.0000E-09   0.000    
  15    0.000       0.000      2.4000E-08  2.4000E-08  2.4000E-08  2.4000E-08   0.000       0.000       0.000       0.000    

USING ET RATE FROM PREVIOUS STRESS PERIOD. CURRENT PERIOD IS:       9

 USING ET EXTINCTION DEPTH FROM PREVIOUS STRESS PERIOD. CURRENT PERIOD IS:       9

 USING EXTINCTION WATER CONTENT FROM PREVIOUS STRESS PERIOD. CURRENT PERIOD IS:       9
 
 SOLVING FOR HEAD 
                                                   Max.-Head-Change                         Max.-Flux-Residual
  Residual-Control   Outer-Iter.   Inner-Iter.     Column Row Layer    Maximum-Head-Change  Column Row Layer    Maximum-Flux-Residual          L2-NORM 
          0                 1           2             4    8     1       0.8667205181E-02       4    8    1         0.4840297553E+00      0.1498862190E+01
          0                 2           2             4    8     1      -0.8588429230E-03       4    8    1        -0.4840309353E-01      0.1494109919E+00
          0                 3           1             4    8     1       0.7659381173E-04       4    8    1         0.4356277805E-02      0.1340186781E-01

    ------------------------------------------------
       NWT REQUIRED            3 OUTER ITERATIONS 
       AND A TOTAL OF          5 INNER ITERATIONS.
    ------------------------------------------------

 NO OUTPUT CONTROL FOR STRESS PERIOD    9   TIME STEP    1
 
 SOLVING FOR HEAD 
                                                   Max.-Head-Change                         Max.-Flux-Residual
  Residual-Control   Outer-Iter.   Inner-Iter.     Column Row Layer    Maximum-Head-Change  Column Row Layer    Maximum-Flux-Residual          L2-NORM 
          0                 1           2             4    8     1       0.9386405856E-02       4    8    1         0.4771635585E+00      0.1462876150E+01
          0                 2           2             4    8     1      -0.9301096319E-03       4    8    1        -0.4771649312E-01      0.1458215534E+00
          0                 3           1             4    8     1       0.8294955588E-04       4    8    1         0.4294483565E-02      0.1308018050E-01

    ------------------------------------------------
       NWT REQUIRED            3 OUTER ITERATIONS 
       AND A TOTAL OF          5 INNER ITERATIONS.
    ------------------------------------------------

 NO OUTPUT CONTROL FOR STRESS PERIOD    9   TIME STEP    2
 
 SOLVING FOR HEAD 
                                                   Max.-Head-Change                         Max.-Flux-Residual
  Residual-Control   Outer-Iter.   Inner-Iter.     Column Row Layer    Maximum-Head-Change  Column Row Layer    Maximum-Flux-Residual          L2-NORM 
          0                 1           2             4    8     1       0.1015101775E-01       4    8    1         0.4697815966E+00      0.1426640091E+01
          0                 2           2             4    8     1      -0.1005876300E-02       4    8    1        -0.4697831909E-01      0.1422105160E+00
          0                 3           1             4    8     1       0.8970661692E-04       4    8    1         0.4228047660E-02      0.1275620897E-01

    ------------------------------------------------
       NWT REQUIRED            3 OUTER ITERATIONS 
       AND A TOTAL OF          5 INNER ITERATIONS.
    ------------------------------------------------

 NO OUTPUT CONTROL FOR STRESS PERIOD    9   TIME STEP    3
 
 SOLVING FOR HEAD 
                                                   Max.-Head-Change                         Max.-Flux-Residual
  Residual-Control   Outer-Iter.   Inner-Iter.     Column Row Layer    Maximum-Head-Change  Column Row Layer    Maximum-Flux-Residual          L2-NORM 
          0                 1           2             4    8     1       0.1096129653E-01       4    8    1         0.4618608681E+00      0.1390330955E+01
          0                 2           2             4    8     1      -0.1086168293E-02       4    8    1        -0.4618627158E-01      0.1385972175E+00
          0                 3           1             4    8     1       0.9686725780E-04       4    8    1         0.4156763160E-02      0.1243289701E-01

    ------------------------------------------------
       NWT REQUIRED            3 OUTER ITERATIONS 
       AND A TOTAL OF          5 INNER ITERATIONS.
    ------------------------------------------------

 NO OUTPUT CONTROL FOR STRESS PERIOD    9   TIME STEP    4
 
 SOLVING FOR HEAD 
                                                   Max.-Head-Change                         Max.-Flux-Residual
  Residual-Control   Outer-Iter.   Inner-Iter.     Column Row Layer    Maximum-Head-Change  Column Row Layer    Maximum-Flux-Residual          L2-NORM 
          0                 1           2             4    8     1       0.1181728107E-01       4    8    1         0.4533927947E+00      0.1354139867E+01
          0                 2           2             4    8     1      -0.1170989494E-02       4    8    1        -0.4533949304E-01      0.1350000455E+00
          0                 3           1             4    8     1       0.1044318220E-03       4    8    1         0.4080552789E-02      0.1211178930E-01
          0                 4           1             4    8     1      -0.8289086412E-05       4    8    1        -0.3268523853E-03      0.9670540367E-03

    ------------------------------------------------
       NWT REQUIRED            4 OUTER ITERATIONS 
       AND A TOTAL OF          6 INNER ITERATIONS.
    ------------------------------------------------

 OUTPUT CONTROL FOR STRESS PERIOD    9   TIME STEP    5
    PRINT BUDGET
    SAVE BUDGET

            WELLS   PERIOD    9   STEP   5
 WELL      1   LAYER   1   ROW     6   COL     4   RATE    -1.00000    
 WELL      2   LAYER   1   ROW     6   COL     5   RATE    -1.00000    
 WELL      3   LAYER   1   ROW     7   COL     4   RATE    -1.00000    
 WELL      4   LAYER   1   ROW     7   COL     5   RATE    -1.00000    
 WELL      5   LAYER   1   ROW     8   COL     4   RATE    -1.00000    
 WELL      6   LAYER   1   ROW     8   COL     5   RATE    -1.00000    
 WELL      7   LAYER   1   ROW     9   COL     4   RATE    -1.00000    
 WELL      8   LAYER   1   ROW     9   COL     5   RATE    -1.00000    
 WELL      9   LAYER   1   ROW    10   COL     4   RATE    -1.00000    
 WELL     10   LAYER   1   ROW    10   COL     5   RATE    -1.00000    

  HEAD DEP BOUNDS   PERIOD    9   STEP     5
 BOUNDARY      1   LAYER   1   ROW    13   COL     1   RATE   -0.277766    
 BOUNDARY      2   LAYER   1   ROW    14   COL     9   RATE    0.295682    



 STREAM LISTING     PERIOD      9   STEP        5

 LAYER ROW COL. STREAM  RCH.  FLOW INTO     FLOW TO   FLOW OUT OF   OVRLND.     DIRECT     STREAM       STREAM     STREAM     STREAM   STREAMBED  STREAMBED
                SEG.NO.  NO.  STRM. RCH.    AQUIFER    STRM. RCH.    RUNOFF     PRECIP       ET          HEAD       DEPTH      WIDTH   CONDCTNC.   GRADIENT

   1    1    1     1     1    2.5000E+01  2.4557E-01   2.4935E+01  1.806E-01  0.000E+00  0.000E+00  1.09423E+03  1.180E+00  1.306E+01  5.875E-02  1.393E+00
   1    2    2     1     2    2.4935E+01  3.8140E-01   2.4835E+01  2.809E-01  0.000E+00  0.000E+00  1.08924E+03  1.178E+00  1.304E+01  9.128E-02  1.393E+00
   1    3    3     1     3    2.4835E+01  3.2634E-01   2.4749E+01  2.408E-01  0.000E+00  0.000E+00  1.08360E+03  1.177E+00  1.302E+01  7.813E-02  1.392E+00
   1    3    4     1     4    2.4749E+01  3.0139E-01   2.4670E+01  2.227E-01  0.000E+00  0.000E+00  1.07858E+03  1.176E+00  1.300E+01  7.218E-02  1.392E+00
   1    4    5     2     1    1.4670E+01  3.0219E-01   1.4515E+01  1.472E-01  0.000E+00  0.000E+00  1.07281E+03  8.742E-01  1.200E+01  7.800E-02  1.291E+00
   1    5    6     2     2    1.4515E+01  2.3216E-01   1.4396E+01  1.132E-01  0.000E+00  0.000E+00  1.06738E+03  8.693E-01  1.200E+01  6.000E-02  1.290E+00
   1    6    6     2     3    1.4396E+01  2.3190E-01   1.4278E+01  1.132E-01  0.000E+00  0.000E+00  1.06266E+03  8.650E-01  1.200E+01  6.000E-02  1.288E+00
   1    7    6     2     4    1.4278E+01  2.3164E-01   1.4159E+01  1.132E-01  0.000E+00  0.000E+00  1.05794E+03  8.607E-01  1.200E+01  6.000E-02  1.287E+00
   1    8    6     2     5    1.4159E+01  2.3138E-01   1.4041E+01  1.132E-01  0.000E+00  0.000E+00  1.05321E+03  8.564E-01  1.200E+01  6.000E-02  1.285E+00
   1    3    5     3     1    1.0000E+01  2.8252E-01   1.0367E+01  6.500E-01  0.000E+00  0.000E+00  1.07555E+03  1.909E+00  9.636E+00  7.227E-02  1.955E+00
   1    3    6     3     2    1.0367E+01  2.4905E-01   1.0768E+01  6.500E-01  0.000E+00  0.000E+00  1.07264E+03  1.727E+00  8.909E+00  6.682E-02  1.864E+00
   1    3    7     3     3    1.0768E+01  1.9718E-01   1.1156E+01  5.850E-01  0.000E+00  0.000E+00  1.06987E+03  1.555E+00  8.218E+00  5.547E-02  1.777E+00
   1    4    8     3     4    1.1156E+01  2.2567E-01   1.1711E+01  7.800E-01  0.000E+00  0.000E+00  1.06682E+03  1.364E+00  7.455E+00  6.709E-02  1.682E+00
   1    5    8     3     5    1.1711E+01  1.5790E-01   1.2203E+01  6.500E-01  0.000E+00  0.000E+00  1.06362E+03  1.164E+00  6.655E+00  4.991E-02  1.582E+00
   1    6    8     3     6    1.2203E+01  5.5980E-02   1.2407E+01  2.600E-01  0.000E+00  0.000E+00  1.06158E+03  1.036E+00  6.145E+00  1.844E-02  1.518E+00
   1    5   10     4     1    1.0000E+01  9.0979E-02   1.0034E+01  1.250E-01  0.000E+00  0.000E+00  1.07837E+03  6.392E-01  1.000E+01  2.500E-02  1.213E+00
   1    5    9     4     2    1.0034E+01  1.8206E-01   1.0102E+01  2.500E-01  0.000E+00  0.000E+00  1.07155E+03  6.411E-01  1.000E+01  5.000E-02  1.214E+00
   1    6    8     4     3    1.0102E+01  1.2752E-01   1.0149E+01  1.750E-01  0.000E+00  0.000E+00  1.06383E+03  6.433E-01  1.000E+01  3.500E-02  1.214E+00
   1    6    8     5     1    2.2556E+01  3.8282E-01   2.2393E+01  2.200E-01  0.000E+00  0.000E+00  1.05889E+03  8.917E-01  2.459E+01  9.837E-02  1.297E+00
   1    7    7     5     2    2.2393E+01  4.7589E-01   2.2192E+01  2.750E-01  0.000E+00  0.000E+00  1.05439E+03  8.892E-01  2.447E+01  1.224E-01  1.296E+00
   1    8    7     5     3    2.2192E+01  3.3140E-01   2.2054E+01  1.925E-01  0.000E+00  0.000E+00  1.05014E+03  8.868E-01  2.436E+01  8.526E-02  1.296E+00
   1    8    6     5     4    2.2054E+01  2.3585E-01   2.1955E+01  1.375E-01  0.000E+00  0.000E+00  1.04714E+03  8.851E-01  2.428E+01  6.071E-02  1.295E+00
   1    9    6     6     1    3.5996E+01  2.7131E-01   3.6168E+01  4.432E-01  0.000E+00  0.000E+00  1.04425E+03  1.522E+00  1.200E+01  6.000E-02  1.507E+00
   1   10    7     6     2    3.6168E+01  2.7157E-01   3.6340E+01  4.432E-01  0.000E+00  0.000E+00  1.03971E+03  1.526E+00  1.200E+01  6.000E-02  1.509E+00
   1   11    7     6     3    3.6340E+01  2.7183E-01   3.6511E+01  4.432E-01  0.000E+00  0.000E+00  1.03517E+03  1.530E+00  1.200E+01  6.000E-02  1.510E+00
   1   12    7     6     4    3.6511E+01  2.7208E-01   3.6682E+01  4.432E-01  0.000E+00  0.000E+00  1.03063E+03  1.535E+00  1.200E+01  6.000E-02  1.512E+00
   1   13    7     6     5    3.6682E+01  4.4137E-02   3.6815E+01  1.773E-01  0.000E+00  0.000E+00  1.02745E+03  1.539E+00  1.200E+01  2.400E-02  6.130E-01
   1   14    9     7     1    1.5000E+02  1.4824E+00   1.4893E+02  4.113E-01  0.000E+00  0.000E+00  1.03987E+03  2.288E+00  5.530E+01  5.593E-01  8.834E-01
   1   13    8     7     2    1.4893E+02  2.3031E+00   1.4708E+02  4.524E-01  0.000E+00  0.000E+00  1.03478E+03  2.281E+00  5.526E+01  6.148E-01  1.249E+00
   1   13    7     7     3    1.4708E+02  2.2793E+00   1.4521E+02  4.113E-01  0.000E+00  0.000E+00  1.02969E+03  2.271E+00  5.522E+01  5.585E-01  1.360E+00
   1   13    6     8     1    1.8203E+02  1.8495E+00   1.8247E+02  2.290E+00  0.000E+00  0.000E+00  1.02491E+03  3.030E+00  4.394E+01  4.477E-01  1.377E+00
   1   13    5     8     2    1.8247E+02  1.2842E+00   1.8347E+02  2.290E+00  0.000E+00  0.000E+00  1.01866E+03  3.035E+00  4.400E+01  4.484E-01  9.546E-01
   1   13    4     8     3    1.8347E+02  3.8615E-01   1.8538E+02  2.290E+00  0.000E+00  0.000E+00  1.01242E+03  3.044E+00  4.413E+01  4.497E-01  2.862E-01
   1   13    3     8     4    1.8538E+02 -1.1405E+00   1.8881E+02  2.290E+00  0.000E+00  0.000E+00  1.00619E+03  3.060E+00  4.437E+01  4.522E+00 -8.407E-02
   1   13    2     8     5    1.8881E+02 -1.2151E+00   1.9231E+02  2.290E+00  0.000E+00  0.000E+00  9.99956E+02  3.081E+00  4.468E+01  4.553E+00 -8.896E-02
   1   13    1     8     6    1.9231E+02 -9.2254E-01   1.9461E+02  1.374E+00  0.000E+00  0.000E+00  9.94974E+02  3.099E+00  4.493E+01  2.747E+00 -1.119E-01



 UBDSV3 SAVING "     NETRECHARGE" ON UNIT 100 AT TIME STEP  5, STRESS PERIOD   9
 UBDSV3 SAVING "    NETDISCHARGE" ON UNIT 101 AT TIME STEP  5, STRESS PERIOD   9
 UBDSV3 SAVING "           GW ET" ON UNIT  61 AT TIME STEP  5, STRESS PERIOD   9
 UBDSV3 SAVING "    UZF RECHARGE" ON UNIT  61 AT TIME STEP  5, STRESS PERIOD   9
 UBDSV3 SAVING " SURFACE LEAKAGE" ON UNIT  61 AT TIME STEP  5, STRESS PERIOD   9
 UBDSV3 SAVING "       HORT+DUNN" ON UNIT  61 AT TIME STEP  5, STRESS PERIOD   9
 UBDSV3 SAVING "  STORAGE CHANGE" ON UNIT  61 AT TIME STEP  5, STRESS PERIOD   9


UNSATURATED ZONE PACKAGE VOLUMETRIC BUDGET FOR  TIME STEP     5 STRESS PERIOD    9
  ------------------------------------------------------------------------------



     CUMULATIVE VOLUMES      L**3       RATES FOR THIS TIME STEP      L**3/T
     ------------------                 ------------------------

           IN:                                      IN:
           ---                                      ---
        INFILTRATION =    62434011.8105          INFILTRATION =           2.9000

          OUT:                                     OUT:
          ----                                     ----
              UZF ET =    17668954.0780                UZF ET =           1.1723
        UZF RECHARGE =     7879692.3965          UZF RECHARGE =       0.0000E+00

            IN - OUT =    36885365.3360              IN - OUT =           1.7277

          STORAGE:                                 STORAGE:
          --------                                 --------
      STORAGE CHANGE =    36885360.6996        STORAGE CHANGE =           1.7277

 PERCENT DISCREPANCY IS DIFFERENCE BETWEEN IN-OUT MINUS CHANGE IN STORAGE
 DIVIDED BY THE AVERAGE OF IN AND OUT TIMES 100

 PERCENT DISCREPANCY =           0.00     PERCENT DISCREPANCY =           0.00






1
  VOLUMETRIC BUDGET FOR ENTIRE MODEL AT END OF TIME STEP    5, STRESS PERIOD   9
  ------------------------------------------------------------------------------

     CUMULATIVE VOLUMES      L**3       RATES FOR THIS TIME STEP      L**3/T
     ------------------                 ------------------------

           IN:                                      IN:
           ---                                      ---
             STORAGE =   412754560.0000               STORAGE =           7.1022
       CONSTANT HEAD =           0.0000         CONSTANT HEAD =           0.0000
               WELLS =           0.0000                 WELLS =           0.0000
     HEAD DEP BOUNDS =     6343779.0000       HEAD DEP BOUNDS =           0.2957
      STREAM LEAKAGE =   351593248.0000        STREAM LEAKAGE =          16.1944
        UZF RECHARGE =     7879697.5000          UZF RECHARGE =           0.0000
               GW ET =           0.0000                 GW ET =           0.0000
     SURFACE LEAKAGE =           0.0000       SURFACE LEAKAGE =           0.0000

            TOTAL IN =   778571264.0000              TOTAL IN =          23.5922

          OUT:                                     OUT:
          ----                                     ----
             STORAGE =   101222800.0000               STORAGE =           3.8893
       CONSTANT HEAD =           0.0000         CONSTANT HEAD =           0.0000
               WELLS =   478089728.0000                 WELLS =          10.0000
     HEAD DEP BOUNDS =     6133340.5000       HEAD DEP BOUNDS =           0.2778
      STREAM LEAKAGE =    73272184.0000        STREAM LEAKAGE =           3.2781
        UZF RECHARGE =           0.0000          UZF RECHARGE =           0.0000
               GW ET =   119866168.0000                 GW ET =           6.1472
     SURFACE LEAKAGE =           0.0000       SURFACE LEAKAGE =           0.0000

           TOTAL OUT =   778584192.0000             TOTAL OUT =          23.5924

            IN - OUT =      -12928.0000              IN - OUT =      -1.5640E-04

 PERCENT DISCREPANCY =          -0.00     PERCENT DISCREPANCY =          -0.00






         TIME SUMMARY AT END OF TIME STEP    5 IN STRESS PERIOD    9
                    SECONDS     MINUTES      HOURS       DAYS        YEARS
                    -----------------------------------------------------------
   TIME STEP LENGTH 1.21100E+05  2018.3      33.639      1.4016     3.83743E-03
 STRESS PERIOD TIME 5.04972E+05  8416.2      140.27      5.8446     1.60016E-02
         TOTAL TIME 2.15290E+07 3.58816E+05  5980.3      249.18     0.68221    
1
 
 SOLVING FOR HEAD 
                                                   Max.-Head-Change                         Max.-Flux-Residual
  Residual-Control   Outer-Iter.   Inner-Iter.     Column Row Layer    Maximum-Head-Change  Column Row Layer    Maximum-Flux-Residual          L2-NORM 
          0                 1           2             4    8     1       0.1271835657E-01       4    8    1         0.4443660522E+00      0.1318222541E+01
          0                 2           2             4    8     1      -0.1260279022E-02       4    8    1        -0.4443685126E-01      0.1314338580E+00
          0                 3           2             4    8     1       0.1123948804E-03       4    8    1         0.3999314685E-02      0.1179287773E-01
          0                 4           1             4    8     1      -0.8921139125E-05       4    8    1        -0.3203451943E-03      0.9412988404E-03

    ------------------------------------------------
       NWT REQUIRED            4 OUTER ITERATIONS 
       AND A TOTAL OF          7 INNER ITERATIONS.
    ------------------------------------------------

 NO OUTPUT CONTROL FOR STRESS PERIOD    9   TIME STEP    6
 
 SOLVING FOR HEAD 
                                                   Max.-Head-Change                         Max.-Flux-Residual
  Residual-Control   Outer-Iter.   Inner-Iter.     Column Row Layer    Maximum-Head-Change  Column Row Layer    Maximum-Flux-Residual          L2-NORM 
          0                 1           2             4    8     1       0.1366324392E-01       4    8    1         0.4347705010E+00      0.1282905864E+01
          0                 2           2             4    8     1      -0.1353910173E-02       4    8    1        -0.4347733245E-01      0.1279306317E+00
          0                 3           2             4    8     1       0.1207451347E-03       4    8    1         0.3912957635E-02      0.1148099031E-01
          0                 4           1             4    8     1      -0.9583925984E-05       4    8    1        -0.3134280103E-03      0.9171821656E-03

    ------------------------------------------------
       NWT REQUIRED            4 OUTER ITERATIONS 
       AND A TOTAL OF          7 INNER ITERATIONS.
    ------------------------------------------------

 NO OUTPUT CONTROL FOR STRESS PERIOD    9   TIME STEP    7
 
 SOLVING FOR HEAD 
                                                   Max.-Head-Change                         Max.-Flux-Residual
  Residual-Control   Outer-Iter.   Inner-Iter.     Column Row Layer    Maximum-Head-Change  Column Row Layer    Maximum-Flux-Residual          L2-NORM 
          0                 1           2             4    8     1       0.1465037915E-01       4    8    1         0.4246134432E+00      0.1248183950E+01
          0                 2           2             4    8     1      -0.1451728020E-02       4    8    1        -0.4246166687E-01      0.1244887429E+00
          0                 3           2             4    8     1       0.1294687664E-03       4    8    1         0.3821547337E-02      0.1117442738E-01
          0                 4           1             4    8     1      -0.1027634884E-04       4    8    1        -0.3061060579E-03      0.8925851603E-03

    ------------------------------------------------
       NWT REQUIRED            4 OUTER ITERATIONS 
       AND A TOTAL OF          7 INNER ITERATIONS.
    ------------------------------------------------

 NO OUTPUT CONTROL FOR STRESS PERIOD    9   TIME STEP    8
 
 SOLVING FOR HEAD 
                                                   Max.-Head-Change                         Max.-Flux-Residual
  Residual-Control   Outer-Iter.   Inner-Iter.     Column Row Layer    Maximum-Head-Change  Column Row Layer    Maximum-Flux-Residual          L2-NORM 
          0                 1           2             4    8     1       0.1567729387E-01       4    8    1         0.4138982102E+00      0.1214287449E+01
          0                 2           2             4    8     1      -0.1553488022E-02       4    8    1        -0.4139018761E-01      0.1211295474E+00
          0                 3           2             4    8     1       0.1385439645E-03       4    8    1         0.3725113746E-02      0.1087491823E-01
          0                 4           1             4    8     1      -0.1099667583E-04       4    8    1        -0.2983817155E-03      0.8689694332E-03

    ------------------------------------------------
       NWT REQUIRED            4 OUTER ITERATIONS 
       AND A TOTAL OF          7 INNER ITERATIONS.
    ------------------------------------------------

 NO OUTPUT CONTROL FOR STRESS PERIOD    9   TIME STEP    9
 
 SOLVING FOR HEAD 
                                                   Max.-Head-Change                         Max.-Flux-Residual
  Residual-Control   Outer-Iter.   Inner-Iter.     Column Row Layer    Maximum-Head-Change  Column Row Layer    Maximum-Flux-Residual          L2-NORM 
          0                 1           2             4    8     1       0.1674122131E-01       4    8    1         0.4026450313E+00      0.1180997136E+01
          0                 2           2             4    8     1      -0.1658916072E-02       4    8    1        -0.4026491741E-01      0.1178316139E+00
          0                 3           2             4    8     1       0.1479462852E-03       4    8    1         0.3623838952E-02      0.1058074361E-01
          0                 4           1             4    8     1      -0.1174296813E-04       4    8    1        -0.2902696031E-03      0.8454845653E-03

    ------------------------------------------------
       NWT REQUIRED            4 OUTER ITERATIONS 
       AND A TOTAL OF          7 INNER ITERATIONS.
    ------------------------------------------------

 OUTPUT CONTROL FOR STRESS PERIOD    9   TIME STEP   10
    PRINT BUDGET
    SAVE BUDGET

            WELLS   PERIOD    9   STEP  10
 WELL      1   LAYER   1   ROW     6   COL     4   RATE    -1.00000    
 WELL      2   LAYER   1   ROW     6   COL     5   RATE    -1.00000    
 WELL      3   LAYER   1   ROW     7   COL     4   RATE    -1.00000    
 WELL      4   LAYER   1   ROW     7   COL     5   RATE    -1.00000    
 WELL      5   LAYER   1   ROW     8   COL     4   RATE    -1.00000    
 WELL      6   LAYER   1   ROW     8   COL     5   RATE    -1.00000    
 WELL      7   LAYER   1   ROW     9   COL     4   RATE    -1.00000    
 WELL      8   LAYER   1   ROW     9   COL     5   RATE    -1.00000    
 WELL      9   LAYER   1   ROW    10   COL     4   RATE    -1.00000    
 WELL     10   LAYER   1   ROW    10   COL     5   RATE    -1.00000    

  HEAD DEP BOUNDS   PERIOD    9   STEP    10
 BOUNDARY      1   LAYER   1   ROW    13   COL     1   RATE   -0.276945    
 BOUNDARY      2   LAYER   1   ROW    14   COL     9   RATE    0.295752    



 STREAM LISTING     PERIOD      9   STEP       10

 LAYER ROW COL. STREAM  RCH.  FLOW INTO     FLOW TO   FLOW OUT OF   OVRLND.     DIRECT     STREAM       STREAM     STREAM     STREAM   STREAMBED  STREAMBED
                SEG.NO.  NO.  STRM. RCH.    AQUIFER    STRM. RCH.    RUNOFF     PRECIP       ET          HEAD       DEPTH      WIDTH   CONDCTNC.   GRADIENT

   1    1    1     1     1    2.5000E+01  2.4557E-01   2.4935E+01  1.806E-01  0.000E+00  0.000E+00  1.09423E+03  1.180E+00  1.306E+01  5.875E-02  1.393E+00
   1    2    2     1     2    2.4935E+01  3.8140E-01   2.4835E+01  2.809E-01  0.000E+00  0.000E+00  1.08924E+03  1.178E+00  1.304E+01  9.128E-02  1.393E+00
   1    3    3     1     3    2.4835E+01  3.2634E-01   2.4749E+01  2.408E-01  0.000E+00  0.000E+00  1.08360E+03  1.177E+00  1.302E+01  7.813E-02  1.392E+00
   1    3    4     1     4    2.4749E+01  3.0139E-01   2.4670E+01  2.227E-01  0.000E+00  0.000E+00  1.07858E+03  1.176E+00  1.300E+01  7.218E-02  1.392E+00
   1    4    5     2     1    1.4670E+01  3.0219E-01   1.4515E+01  1.472E-01  0.000E+00  0.000E+00  1.07281E+03  8.742E-01  1.200E+01  7.800E-02  1.291E+00
   1    5    6     2     2    1.4515E+01  2.3216E-01   1.4396E+01  1.132E-01  0.000E+00  0.000E+00  1.06738E+03  8.693E-01  1.200E+01  6.000E-02  1.290E+00
   1    6    6     2     3    1.4396E+01  2.3190E-01   1.4278E+01  1.132E-01  0.000E+00  0.000E+00  1.06266E+03  8.650E-01  1.200E+01  6.000E-02  1.288E+00
   1    7    6     2     4    1.4278E+01  2.3164E-01   1.4159E+01  1.132E-01  0.000E+00  0.000E+00  1.05794E+03  8.607E-01  1.200E+01  6.000E-02  1.287E+00
   1    8    6     2     5    1.4159E+01  2.3138E-01   1.4041E+01  1.132E-01  0.000E+00  0.000E+00  1.05321E+03  8.564E-01  1.200E+01  6.000E-02  1.285E+00
   1    3    5     3     1    1.0000E+01  2.8252E-01   1.0367E+01  6.500E-01  0.000E+00  0.000E+00  1.07555E+03  1.909E+00  9.636E+00  7.227E-02  1.955E+00
   1    3    6     3     2    1.0367E+01  2.4905E-01   1.0768E+01  6.500E-01  0.000E+00  0.000E+00  1.07264E+03  1.727E+00  8.909E+00  6.682E-02  1.864E+00
   1    3    7     3     3    1.0768E+01  1.9718E-01   1.1156E+01  5.850E-01  0.000E+00  0.000E+00  1.06987E+03  1.555E+00  8.218E+00  5.547E-02  1.777E+00
   1    4    8     3     4    1.1156E+01  2.2567E-01   1.1711E+01  7.800E-01  0.000E+00  0.000E+00  1.06682E+03  1.364E+00  7.455E+00  6.709E-02  1.682E+00
   1    5    8     3     5    1.1711E+01  1.5790E-01   1.2203E+01  6.500E-01  0.000E+00  0.000E+00  1.06362E+03  1.164E+00  6.655E+00  4.991E-02  1.582E+00
   1    6    8     3     6    1.2203E+01  5.5980E-02   1.2407E+01  2.600E-01  0.000E+00  0.000E+00  1.06158E+03  1.036E+00  6.145E+00  1.844E-02  1.518E+00
   1    5   10     4     1    1.0000E+01  9.0979E-02   1.0034E+01  1.250E-01  0.000E+00  0.000E+00  1.07837E+03  6.392E-01  1.000E+01  2.500E-02  1.213E+00
   1    5    9     4     2    1.0034E+01  1.8206E-01   1.0102E+01  2.500E-01  0.000E+00  0.000E+00  1.07155E+03  6.411E-01  1.000E+01  5.000E-02  1.214E+00
   1    6    8     4     3    1.0102E+01  1.2752E-01   1.0149E+01  1.750E-01  0.000E+00  0.000E+00  1.06383E+03  6.433E-01  1.000E+01  3.500E-02  1.214E+00
   1    6    8     5     1    2.2556E+01  3.8282E-01   2.2393E+01  2.200E-01  0.000E+00  0.000E+00  1.05889E+03  8.917E-01  2.459E+01  9.837E-02  1.297E+00
   1    7    7     5     2    2.2393E+01  4.7589E-01   2.2192E+01  2.750E-01  0.000E+00  0.000E+00  1.05439E+03  8.892E-01  2.447E+01  1.224E-01  1.296E+00
   1    8    7     5     3    2.2192E+01  3.3140E-01   2.2054E+01  1.925E-01  0.000E+00  0.000E+00  1.05014E+03  8.868E-01  2.436E+01  8.526E-02  1.296E+00
   1    8    6     5     4    2.2054E+01  2.3585E-01   2.1955E+01  1.375E-01  0.000E+00  0.000E+00  1.04714E+03  8.851E-01  2.428E+01  6.071E-02  1.295E+00
   1    9    6     6     1    3.5996E+01  2.7131E-01   3.6168E+01  4.432E-01  0.000E+00  0.000E+00  1.04425E+03  1.522E+00  1.200E+01  6.000E-02  1.507E+00
   1   10    7     6     2    3.6168E+01  2.7157E-01   3.6340E+01  4.432E-01  0.000E+00  0.000E+00  1.03971E+03  1.526E+00  1.200E+01  6.000E-02  1.509E+00
   1   11    7     6     3    3.6340E+01  2.7183E-01   3.6511E+01  4.432E-01  0.000E+00  0.000E+00  1.03517E+03  1.530E+00  1.200E+01  6.000E-02  1.510E+00
   1   12    7     6     4    3.6511E+01  2.7208E-01   3.6682E+01  4.432E-01  0.000E+00  0.000E+00  1.03063E+03  1.535E+00  1.200E+01  6.000E-02  1.512E+00
   1   13    7     6     5    3.6682E+01  4.4497E-02   3.6815E+01  1.773E-01  0.000E+00  0.000E+00  1.02745E+03  1.539E+00  1.200E+01  2.400E-02  6.180E-01
   1   14    9     7     1    1.5000E+02  1.4834E+00   1.4893E+02  4.113E-01  0.000E+00  0.000E+00  1.03987E+03  2.288E+00  5.530E+01  5.593E-01  8.840E-01
   1   13    8     7     2    1.4893E+02  2.3071E+00   1.4707E+02  4.524E-01  0.000E+00  0.000E+00  1.03478E+03  2.281E+00  5.526E+01  6.148E-01  1.251E+00
   1   13    7     7     3    1.4707E+02  2.2877E+00   1.4520E+02  4.113E-01  0.000E+00  0.000E+00  1.02969E+03  2.271E+00  5.522E+01  5.585E-01  1.365E+00
   1   13    6     8     1    1.8201E+02  1.8599E+00   1.8244E+02  2.290E+00  0.000E+00  0.000E+00  1.02491E+03  3.030E+00  4.394E+01  4.477E-01  1.385E+00
   1   13    5     8     2    1.8244E+02  1.2944E+00   1.8344E+02  2.290E+00  0.000E+00  0.000E+00  1.01866E+03  3.035E+00  4.400E+01  4.484E-01  9.623E-01
   1   13    4     8     3    1.8344E+02  3.9524E-01   1.8533E+02  2.290E+00  0.000E+00  0.000E+00  1.01242E+03  3.044E+00  4.413E+01  4.497E-01  2.930E-01
   1   13    3     8     4    1.8533E+02 -1.0403E+00   1.8866E+02  2.290E+00  0.000E+00  0.000E+00  1.00618E+03  3.060E+00  4.436E+01  4.521E+00 -7.671E-02
   1   13    2     8     5    1.8866E+02 -1.1095E+00   1.9206E+02  2.290E+00  0.000E+00  0.000E+00  9.99955E+02  3.080E+00  4.466E+01  4.551E+00 -8.126E-02
   1   13    1     8     6    1.9206E+02 -8.6729E-01   1.9430E+02  1.374E+00  0.000E+00  0.000E+00  9.94972E+02  3.097E+00  4.491E+01  2.746E+00 -1.053E-01



 UBDSV3 SAVING "     NETRECHARGE" ON UNIT 100 AT TIME STEP 10, STRESS PERIOD   9
 UBDSV3 SAVING "    NETDISCHARGE" ON UNIT 101 AT TIME STEP 10, STRESS PERIOD   9
 UBDSV3 SAVING "           GW ET" ON UNIT  61 AT TIME STEP 10, STRESS PERIOD   9
 UBDSV3 SAVING "    UZF RECHARGE" ON UNIT  61 AT TIME STEP 10, STRESS PERIOD   9
 UBDSV3 SAVING " SURFACE LEAKAGE" ON UNIT  61 AT TIME STEP 10, STRESS PERIOD   9
 UBDSV3 SAVING "       HORT+DUNN" ON UNIT  61 AT TIME STEP 10, STRESS PERIOD   9
 UBDSV3 SAVING "  STORAGE CHANGE" ON UNIT  61 AT TIME STEP 10, STRESS PERIOD   9


UNSATURATED ZONE PACKAGE VOLUMETRIC BUDGET FOR  TIME STEP    10 STRESS PERIOD    9
  ------------------------------------------------------------------------------



     CUMULATIVE VOLUMES      L**3       RATES FOR THIS TIME STEP      L**3/T
     ------------------                 ------------------------

           IN:                                      IN:
           ---                                      ---
        INFILTRATION =    64792471.0781          INFILTRATION =           2.9000

          OUT:                                     OUT:
          ----                                     ----
              UZF ET =    18620558.4044                UZF ET =           1.1603
        UZF RECHARGE =     7879692.3965          UZF RECHARGE =       0.0000E+00

            IN - OUT =    38292220.2772              IN - OUT =           1.7397

          STORAGE:                                 STORAGE:
          --------                                 --------
      STORAGE CHANGE =    38292215.6196        STORAGE CHANGE =           1.7397

 PERCENT DISCREPANCY IS DIFFERENCE BETWEEN IN-OUT MINUS CHANGE IN STORAGE
 DIVIDED BY THE AVERAGE OF IN AND OUT TIMES 100

 PERCENT DISCREPANCY =           0.00     PERCENT DISCREPANCY =           0.00






1
  VOLUMETRIC BUDGET FOR ENTIRE MODEL AT END OF TIME STEP   10, STRESS PERIOD   9
  ------------------------------------------------------------------------------

     CUMULATIVE VOLUMES      L**3       RATES FOR THIS TIME STEP      L**3/T
     ------------------                 ------------------------

           IN:                                      IN:
           ---                                      ---
             STORAGE =   418122656.0000               STORAGE =           6.3376
       CONSTANT HEAD =           0.0000         CONSTANT HEAD =           0.0000
               WELLS =           0.0000                 WELLS =           0.0000
     HEAD DEP BOUNDS =     6584280.5000       HEAD DEP BOUNDS =           0.2958
      STREAM LEAKAGE =   364785088.0000        STREAM LEAKAGE =          16.2379
        UZF RECHARGE =     7879697.5000          UZF RECHARGE =           0.0000
               GW ET =           0.0000                 GW ET =           0.0000
     SURFACE LEAKAGE =           0.0000       SURFACE LEAKAGE =           0.0000

            TOTAL IN =   797371712.0000              TOTAL IN =          22.8713

          OUT:                                     OUT:
          ----                                     ----
             STORAGE =   104137976.0000               STORAGE =           3.4292
       CONSTANT HEAD =           0.0000         CONSTANT HEAD =           0.0000
               WELLS =   486222336.0000                 WELLS =          10.0000
     HEAD DEP BOUNDS =     6358814.5000       HEAD DEP BOUNDS =           0.2769
      STREAM LEAKAGE =    75800048.0000        STREAM LEAKAGE =           3.0171
        UZF RECHARGE =           0.0000          UZF RECHARGE =           0.0000
               GW ET =   124865584.0000                 GW ET =           6.1482
     SURFACE LEAKAGE =           0.0000       SURFACE LEAKAGE =           0.0000

           TOTAL OUT =   797384768.0000             TOTAL OUT =          22.8714

            IN - OUT =      -13056.0000              IN - OUT =      -1.4114E-04

 PERCENT DISCREPANCY =          -0.00     PERCENT DISCREPANCY =          -0.00






         TIME SUMMARY AT END OF TIME STEP   10 IN STRESS PERIOD    9
                    SECONDS     MINUTES      HOURS       DAYS        YEARS
                    -----------------------------------------------------------
   TIME STEP LENGTH 1.95033E+05  3250.6      54.176      2.2573     6.18023E-03
 STRESS PERIOD TIME 1.31823E+06  21971.      366.18      15.257     4.17723E-02
         TOTAL TIME 2.23422E+07 3.72370E+05  6206.2      258.59     0.70798    
1
 
 SOLVING FOR HEAD 
                                                   Max.-Head-Change                         Max.-Flux-Residual
  Residual-Control   Outer-Iter.   Inner-Iter.     Column Row Layer    Maximum-Head-Change  Column Row Layer    Maximum-Flux-Residual          L2-NORM 
          0                 1           2             4    8     1       0.1783900642E-01       4    8    1         0.3908852461E+00      0.1148453991E+01
          0                 2           2             4    8     1      -0.1767699591E-02       4    8    1        -0.3908898988E-01      0.1146079340E+00
          0                 3           2             4    8     1       0.1576478502E-03       4    8    1         0.3518004957E-02      0.1029383867E-01
          0                 4           1             4    8     1      -0.1251301215E-04       4    8    1        -0.2817922991E-03      0.8228715135E-03

    ------------------------------------------------
       NWT REQUIRED            4 OUTER ITERATIONS 
       AND A TOTAL OF          7 INNER ITERATIONS.
    ------------------------------------------------

 NO OUTPUT CONTROL FOR STRESS PERIOD    9   TIME STEP   11
 
 SOLVING FOR HEAD 
                                                   Max.-Head-Change                         Max.-Flux-Residual
  Residual-Control   Outer-Iter.   Inner-Iter.     Column Row Layer    Maximum-Head-Change  Column Row Layer    Maximum-Flux-Residual          L2-NORM 
          0                 1           2             4    8     1       0.1896658335E-01       4    8    1         0.3786484766E+00      0.1116423894E+01
          0                 2           2             4    8     1      -0.1879435744E-02       4    8    1        -0.3786536671E-01      0.1114356454E+00
          0                 3           2             4    8     1       0.1676127340E-03       4    8    1         0.3407878334E-02      0.1001119517E-01
          0                 4           1             4    8     1      -0.1330395684E-04       4    8    1        -0.2729711634E-03      0.8004489259E-03

    ------------------------------------------------
       NWT REQUIRED            4 OUTER ITERATIONS 
       AND A TOTAL OF          7 INNER ITERATIONS.
    ------------------------------------------------

 NO OUTPUT CONTROL FOR STRESS PERIOD    9   TIME STEP   12
 
 SOLVING FOR HEAD 
                                                   Max.-Head-Change                         Max.-Flux-Residual
  Residual-Control   Outer-Iter.   Inner-Iter.     Column Row Layer    Maximum-Head-Change  Column Row Layer    Maximum-Flux-Residual          L2-NORM 
          0                 1           2             4    8     1       0.2012006730E-01       4    8    1         0.3659867319E+00      0.1085234101E+01
          0                 2           2             4    8     1      -0.1993739637E-02       4    8    1        -0.3659924820E-01      0.1083429472E+00
          0                 3           2             4    8     1       0.1778066092E-03       4    8    1         0.3293927095E-02      0.9735410647E-02
          0                 4           1             4    8     1      -0.1411307816E-04       4    8    1        -0.2638436779E-03      0.7786124418E-03

    ------------------------------------------------
       NWT REQUIRED            4 OUTER ITERATIONS 
       AND A TOTAL OF          7 INNER ITERATIONS.
    ------------------------------------------------

 NO OUTPUT CONTROL FOR STRESS PERIOD    9   TIME STEP   13
 
 SOLVING FOR HEAD 
                                                   Max.-Head-Change                         Max.-Flux-Residual
  Residual-Control   Outer-Iter.   Inner-Iter.     Column Row Layer    Maximum-Head-Change  Column Row Layer    Maximum-Flux-Residual          L2-NORM 
          0                 1           2             4    8     1       0.2129475296E-01       4    8    1         0.3529493279E+00      0.1054452896E+01
          0                 2           2             4    8     1      -0.2110145061E-02       4    8    1        -0.3529556514E-01      0.1052892318E+00
          0                 3           2             4    8     1       0.1881878979E-03       4    8    1         0.3176595048E-02      0.9462942511E-02
          0                 4           1             4    8     1      -0.1493707364E-04       4    8    1        -0.2544453762E-03      0.7570585461E-03

    ------------------------------------------------
       NWT REQUIRED            4 OUTER ITERATIONS 
       AND A TOTAL OF          7 INNER ITERATIONS.
    ------------------------------------------------

 NO OUTPUT CONTROL FOR STRESS PERIOD    9   TIME STEP   14
 
 SOLVING FOR HEAD 
                                                   Max.-Head-Change                         Max.-Flux-Residual
  Residual-Control   Outer-Iter.   Inner-Iter.     Column Row Layer    Maximum-Head-Change  Column Row Layer    Maximum-Flux-Residual          L2-NORM 
          0                 1           2             4    8     1       0.2248568748E-01       4    8    1         0.3395952592E+00      0.1023917495E+01
          0                 2           2             4    8     1      -0.2228161271E-02       4    8    1        -0.3396021613E-01      0.1022577236E+00
          0                 3           2             4    8     1       0.1987128340E-03       4    8    1         0.3056413045E-02      0.9192214339E-02
          0                 4           1             4    8     1      -0.1577247165E-04       4    8    1        -0.2448188018E-03      0.7355662227E-03

    ------------------------------------------------
       NWT REQUIRED            4 OUTER ITERATIONS 
       AND A TOTAL OF          7 INNER ITERATIONS.
    ------------------------------------------------

 OUTPUT CONTROL FOR STRESS PERIOD    9   TIME STEP   15
    PRINT BUDGET
    PRINT HEAD FOR ALL LAYERS
    SAVE HEAD FOR ALL LAYERS
    SAVE BUDGET

            WELLS   PERIOD    9   STEP  15
 WELL      1   LAYER   1   ROW     6   COL     4   RATE    -1.00000    
 WELL      2   LAYER   1   ROW     6   COL     5   RATE    -1.00000    
 WELL      3   LAYER   1   ROW     7   COL     4   RATE    -1.00000    
 WELL      4   LAYER   1   ROW     7   COL     5   RATE    -1.00000    
 WELL      5   LAYER   1   ROW     8   COL     4   RATE    -1.00000    
 WELL      6   LAYER   1   ROW     8   COL     5   RATE    -1.00000    
 WELL      7   LAYER   1   ROW     9   COL     4   RATE    -1.00000    
 WELL      8   LAYER   1   ROW     9   COL     5   RATE    -1.00000    
 WELL      9   LAYER   1   ROW    10   COL     4   RATE    -1.00000    
 WELL     10   LAYER   1   ROW    10   COL     5   RATE    -1.00000    

  HEAD DEP BOUNDS   PERIOD    9   STEP    15
 BOUNDARY      1   LAYER   1   ROW    13   COL     1   RATE   -0.276177    
 BOUNDARY      2   LAYER   1   ROW    14   COL     9   RATE    0.295865    



 STREAM LISTING     PERIOD      9   STEP       15

 LAYER ROW COL. STREAM  RCH.  FLOW INTO     FLOW TO   FLOW OUT OF   OVRLND.     DIRECT     STREAM       STREAM     STREAM     STREAM   STREAMBED  STREAMBED
                SEG.NO.  NO.  STRM. RCH.    AQUIFER    STRM. RCH.    RUNOFF     PRECIP       ET          HEAD       DEPTH      WIDTH   CONDCTNC.   GRADIENT

   1    1    1     1     1    2.5000E+01  2.4557E-01   2.4935E+01  1.806E-01  0.000E+00  0.000E+00  1.09423E+03  1.180E+00  1.306E+01  5.875E-02  1.393E+00
   1    2    2     1     2    2.4935E+01  3.8140E-01   2.4835E+01  2.809E-01  0.000E+00  0.000E+00  1.08924E+03  1.178E+00  1.304E+01  9.128E-02  1.393E+00
   1    3    3     1     3    2.4835E+01  3.2634E-01   2.4749E+01  2.408E-01  0.000E+00  0.000E+00  1.08360E+03  1.177E+00  1.302E+01  7.813E-02  1.392E+00
   1    3    4     1     4    2.4749E+01  3.0139E-01   2.4670E+01  2.227E-01  0.000E+00  0.000E+00  1.07858E+03  1.176E+00  1.300E+01  7.218E-02  1.392E+00
   1    4    5     2     1    1.4670E+01  3.0219E-01   1.4515E+01  1.472E-01  0.000E+00  0.000E+00  1.07281E+03  8.742E-01  1.200E+01  7.800E-02  1.291E+00
   1    5    6     2     2    1.4515E+01  2.3216E-01   1.4396E+01  1.132E-01  0.000E+00  0.000E+00  1.06738E+03  8.693E-01  1.200E+01  6.000E-02  1.290E+00
   1    6    6     2     3    1.4396E+01  2.3190E-01   1.4278E+01  1.132E-01  0.000E+00  0.000E+00  1.06266E+03  8.650E-01  1.200E+01  6.000E-02  1.288E+00
   1    7    6     2     4    1.4278E+01  2.3164E-01   1.4159E+01  1.132E-01  0.000E+00  0.000E+00  1.05794E+03  8.607E-01  1.200E+01  6.000E-02  1.287E+00
   1    8    6     2     5    1.4159E+01  2.3138E-01   1.4041E+01  1.132E-01  0.000E+00  0.000E+00  1.05321E+03  8.564E-01  1.200E+01  6.000E-02  1.285E+00
   1    3    5     3     1    1.0000E+01  2.8252E-01   1.0367E+01  6.500E-01  0.000E+00  0.000E+00  1.07555E+03  1.909E+00  9.636E+00  7.227E-02  1.955E+00
   1    3    6     3     2    1.0367E+01  2.4905E-01   1.0768E+01  6.500E-01  0.000E+00  0.000E+00  1.07264E+03  1.727E+00  8.909E+00  6.682E-02  1.864E+00
   1    3    7     3     3    1.0768E+01  1.9718E-01   1.1156E+01  5.850E-01  0.000E+00  0.000E+00  1.06987E+03  1.555E+00  8.218E+00  5.547E-02  1.777E+00
   1    4    8     3     4    1.1156E+01  2.2567E-01   1.1711E+01  7.800E-01  0.000E+00  0.000E+00  1.06682E+03  1.364E+00  7.455E+00  6.709E-02  1.682E+00
   1    5    8     3     5    1.1711E+01  1.5790E-01   1.2203E+01  6.500E-01  0.000E+00  0.000E+00  1.06362E+03  1.164E+00  6.655E+00  4.991E-02  1.582E+00
   1    6    8     3     6    1.2203E+01  5.5980E-02   1.2407E+01  2.600E-01  0.000E+00  0.000E+00  1.06158E+03  1.036E+00  6.145E+00  1.844E-02  1.518E+00
   1    5   10     4     1    1.0000E+01  9.0979E-02   1.0034E+01  1.250E-01  0.000E+00  0.000E+00  1.07837E+03  6.392E-01  1.000E+01  2.500E-02  1.213E+00
   1    5    9     4     2    1.0034E+01  1.8206E-01   1.0102E+01  2.500E-01  0.000E+00  0.000E+00  1.07155E+03  6.411E-01  1.000E+01  5.000E-02  1.214E+00
   1    6    8     4     3    1.0102E+01  1.2752E-01   1.0149E+01  1.750E-01  0.000E+00  0.000E+00  1.06383E+03  6.433E-01  1.000E+01  3.500E-02  1.214E+00
   1    6    8     5     1    2.2556E+01  3.8282E-01   2.2393E+01  2.200E-01  0.000E+00  0.000E+00  1.05889E+03  8.917E-01  2.459E+01  9.837E-02  1.297E+00
   1    7    7     5     2    2.2393E+01  4.7589E-01   2.2192E+01  2.750E-01  0.000E+00  0.000E+00  1.05439E+03  8.892E-01  2.447E+01  1.224E-01  1.296E+00
   1    8    7     5     3    2.2192E+01  3.3140E-01   2.2054E+01  1.925E-01  0.000E+00  0.000E+00  1.05014E+03  8.868E-01  2.436E+01  8.526E-02  1.296E+00
   1    8    6     5     4    2.2054E+01  2.3585E-01   2.1955E+01  1.375E-01  0.000E+00  0.000E+00  1.04714E+03  8.851E-01  2.428E+01  6.071E-02  1.295E+00
   1    9    6     6     1    3.5996E+01  2.7131E-01   3.6168E+01  4.432E-01  0.000E+00  0.000E+00  1.04425E+03  1.522E+00  1.200E+01  6.000E-02  1.507E+00
   1   10    7     6     2    3.6168E+01  2.7157E-01   3.6340E+01  4.432E-01  0.000E+00  0.000E+00  1.03971E+03  1.526E+00  1.200E+01  6.000E-02  1.509E+00
   1   11    7     6     3    3.6340E+01  2.7183E-01   3.6511E+01  4.432E-01  0.000E+00  0.000E+00  1.03517E+03  1.530E+00  1.200E+01  6.000E-02  1.510E+00
   1   12    7     6     4    3.6511E+01  2.7208E-01   3.6682E+01  4.432E-01  0.000E+00  0.000E+00  1.03063E+03  1.535E+00  1.200E+01  6.000E-02  1.512E+00
   1   13    7     6     5    3.6682E+01  4.5046E-02   3.6814E+01  1.773E-01  0.000E+00  0.000E+00  1.02745E+03  1.539E+00  1.200E+01  2.400E-02  6.256E-01
   1   14    9     7     1    1.5000E+02  1.4850E+00   1.4893E+02  4.113E-01  0.000E+00  0.000E+00  1.03987E+03  2.288E+00  5.530E+01  5.593E-01  8.850E-01
   1   13    8     7     2    1.4893E+02  2.3137E+00   1.4707E+02  4.524E-01  0.000E+00  0.000E+00  1.03478E+03  2.281E+00  5.526E+01  6.148E-01  1.254E+00
   1   13    7     7     3    1.4707E+02  2.3004E+00   1.4518E+02  4.113E-01  0.000E+00  0.000E+00  1.02969E+03  2.271E+00  5.522E+01  5.585E-01  1.373E+00
   1   13    6     8     1    1.8199E+02  1.8742E+00   1.8241E+02  2.290E+00  0.000E+00  0.000E+00  1.02490E+03  3.030E+00  4.393E+01  4.477E-01  1.395E+00
   1   13    5     8     2    1.8241E+02  1.3081E+00   1.8339E+02  2.290E+00  0.000E+00  0.000E+00  1.01866E+03  3.034E+00  4.400E+01  4.483E-01  9.726E-01
   1   13    4     8     3    1.8339E+02  4.0734E-01   1.8527E+02  2.290E+00  0.000E+00  0.000E+00  1.01242E+03  3.043E+00  4.413E+01  4.497E-01  3.020E-01
   1   13    3     8     4    1.8527E+02 -9.6682E-01   1.8853E+02  2.290E+00  0.000E+00  0.000E+00  1.00618E+03  3.059E+00  4.436E+01  4.520E+00 -7.130E-02
   1   13    2     8     5    1.8853E+02 -1.0368E+00   1.9186E+02  2.290E+00  0.000E+00  0.000E+00  9.99954E+02  3.079E+00  4.465E+01  4.550E+00 -7.596E-02
   1   13    1     8     6    1.9186E+02 -8.1523E-01   1.9404E+02  1.374E+00  0.000E+00  0.000E+00  9.94971E+02  3.096E+00  4.489E+01  2.745E+00 -9.901E-02



 UBDSV3 SAVING "     NETRECHARGE" ON UNIT 100 AT TIME STEP 15, STRESS PERIOD   9
 UBDSV3 SAVING "    NETDISCHARGE" ON UNIT 101 AT TIME STEP 15, STRESS PERIOD   9
 UBDSV3 SAVING "           GW ET" ON UNIT  61 AT TIME STEP 15, STRESS PERIOD   9
 UBDSV3 SAVING "    UZF RECHARGE" ON UNIT  61 AT TIME STEP 15, STRESS PERIOD   9
 UBDSV3 SAVING " SURFACE LEAKAGE" ON UNIT  61 AT TIME STEP 15, STRESS PERIOD   9
 UBDSV3 SAVING "       HORT+DUNN" ON UNIT  61 AT TIME STEP 15, STRESS PERIOD   9
 UBDSV3 SAVING "  STORAGE CHANGE" ON UNIT  61 AT TIME STEP 15, STRESS PERIOD   9


UNSATURATED ZONE PACKAGE VOLUMETRIC BUDGET FOR  TIME STEP    15 STRESS PERIOD    9
  ------------------------------------------------------------------------------



     CUMULATIVE VOLUMES      L**3       RATES FOR THIS TIME STEP      L**3/T
     ------------------                 ------------------------

           IN:                                      IN:
           ---                                      ---
        INFILTRATION =    68590793.4297          INFILTRATION =           2.9000

          OUT:                                     OUT:
          ----                                     ----
              UZF ET =    20151979.8258                UZF ET =           1.1749
        UZF RECHARGE =     7879692.3965          UZF RECHARGE =       0.0000E+00

            IN - OUT =    40559121.2073              IN - OUT =           1.7251

          STORAGE:                                 STORAGE:
          --------                                 --------
      STORAGE CHANGE =    40559116.5961        STORAGE CHANGE =           1.7251

 PERCENT DISCREPANCY IS DIFFERENCE BETWEEN IN-OUT MINUS CHANGE IN STORAGE
 DIVIDED BY THE AVERAGE OF IN AND OUT TIMES 100

 PERCENT DISCREPANCY =           0.00     PERCENT DISCREPANCY =           0.00






1
              HEAD IN LAYER   1 AT END OF TIME STEP  15 IN STRESS PERIOD    9
  ---------------------------------------------------------------------------

           1       2       3       4       5       6       7       8       9      10
 ...................................................................................
   1  1032.57 1029.38 6999.00 6999.00 6999.00 6999.00 6999.00 6999.00 6999.00 6999.00
   2  1029.67 1025.40 1023.43 6999.00 6999.00 1022.04 1022.32 1022.49 6999.00 6999.00
   3  6999.00 1022.41 1021.17 1020.12 1020.10 1020.68 1021.49 1021.78 6999.00 6999.00
   4  1020.26 1020.32 1019.37 1018.41 1018.24 1018.40 1019.42 1021.08 1021.07 6999.00
   5  1019.37 1018.49 1017.28 1016.61 1016.84 1017.55 1018.30 1019.36 1020.45 1021.33
   6  1018.43 1017.10 1015.42 1014.70 1015.19 1016.59 1017.76 1018.95 1019.95 1021.24
   7  1017.77 1015.95 1014.03 1013.39 1014.09 1015.79 1017.27 1018.30 1019.70 6999.00
   8  6999.00 1014.96 1013.14 1012.61 1013.45 1015.26 1016.68 1018.22 1019.99 6999.00
   9  6999.00 1013.96 1012.64 1012.39 1013.30 1015.10 1016.51 1018.44 1020.83 6999.00
  10  6999.00 1012.84 1012.37 1012.63 1013.67 1015.56 1017.20 1019.37 1022.03 1022.92
  11  6999.00 1010.84 1011.61 1013.08 1014.60 1016.70 1018.81 1021.54 1024.59 6999.00
  12  1001.10 1006.15 1009.62 1012.46 1015.20 1018.34 1021.26 1025.73 1029.38 6999.00
  13   995.27 1000.18 1006.40 1011.51 1015.74 1020.72 1025.57 1031.02 1034.02 6999.00
  14  6999.00 1005.69 1008.47 1012.59 1016.75 1021.22 1026.43 1032.44 1037.21 6999.00
  15  6999.00 6999.00 1012.08 1014.55 1017.68 1020.49 6999.00 6999.00 6999.00 6999.00

 HEAD WILL BE SAVED ON UNIT   58 AT END OF TIME STEP   15, STRESS PERIOD    9
1
  VOLUMETRIC BUDGET FOR ENTIRE MODEL AT END OF TIME STEP   15, STRESS PERIOD   9
  ------------------------------------------------------------------------------

     CUMULATIVE VOLUMES      L**3       RATES FOR THIS TIME STEP      L**3/T
     ------------------                 ------------------------

           IN:                                      IN:
           ---                                      ---
             STORAGE =   425829376.0000               STORAGE =           5.6257
       CONSTANT HEAD =           0.0000         CONSTANT HEAD =           0.0000
               WELLS =           0.0000                 WELLS =           0.0000
     HEAD DEP BOUNDS =     6971736.0000       HEAD DEP BOUNDS =           0.2959
      STREAM LEAKAGE =   386102432.0000        STREAM LEAKAGE =          16.2994
        UZF RECHARGE =     7879697.5000          UZF RECHARGE =           0.0000
               GW ET =           0.0000                 GW ET =           0.0000
     SURFACE LEAKAGE =           0.0000       SURFACE LEAKAGE =           0.0000

            TOTAL IN =   826783232.0000              TOTAL IN =          22.2210

          OUT:                                     OUT:
          ----                                     ----
             STORAGE =   108259936.0000               STORAGE =           2.9792
       CONSTANT HEAD =           0.0000         CONSTANT HEAD =           0.0000
               WELLS =   499320032.0000                 WELLS =          10.0000
     HEAD DEP BOUNDS =     6720890.0000       HEAD DEP BOUNDS =           0.2762
      STREAM LEAKAGE =    79578384.0000        STREAM LEAKAGE =           2.8188
        UZF RECHARGE =           0.0000          UZF RECHARGE =           0.0000
               GW ET =   132917288.0000                 GW ET =           6.1469
     SURFACE LEAKAGE =           0.0000       SURFACE LEAKAGE =           0.0000

           TOTAL OUT =   826796544.0000             TOTAL OUT =          22.2211

            IN - OUT =      -13312.0000              IN - OUT =      -1.2779E-04

 PERCENT DISCREPANCY =          -0.00     PERCENT DISCREPANCY =          -0.00






         TIME SUMMARY AT END OF TIME STEP   15 IN STRESS PERIOD    9
                    SECONDS     MINUTES      HOURS       DAYS        YEARS
                    -----------------------------------------------------------
   TIME STEP LENGTH 3.14103E+05  5235.0      87.251      3.6354     9.95332E-03
 STRESS PERIOD TIME 2.62800E+06  43800.      730.00      30.417     8.32763E-02
         TOTAL TIME 2.36520E+07 3.94200E+05  6570.0      273.75     0.74949    
1
1
                            STRESS PERIOD NO.   10, LENGTH =   2628000.    
                            -----------------------------------------------

                              NUMBER OF TIME STEPS =    15

                               MULTIPLIER FOR DELT =     1.100

                            INITIAL TIME STEP SIZE =   82713.07    

      0 WELLS

 REUSING NON-PARAMETER GHB CELLS FROM LAST STRESS PERIOD

      2 GHB CELLS

 REUSING STREAM SEGMENT DATA FROM LAST STRESS PERIOD



            AREAL INFILTRATION RATE
 READING ON UNIT   19 WITH FORMAT: (10F4.0)            

            1           2           3           4           5           6           7           8           9          10
 ........................................................................................................................
   1   2.0000E-09  4.0000E-09   0.000       0.000       0.000       0.000       0.000       0.000       0.000       0.000    
   2   4.0000E-09  2.0000E-09  4.0000E-09   0.000       0.000      1.6000E-08  1.6000E-08  1.0000E-08   0.000       0.000    
   3    0.000      1.0000E-08  2.0000E-09  2.0000E-09  1.6000E-08  1.6000E-08  1.0000E-08  1.0000E-08   0.000       0.000    
   4   1.6000E-08  1.0000E-08  2.0000E-09  2.0000E-09  2.0000E-09  2.0000E-09  2.0000E-09  2.0000E-09  4.0000E-09   0.000    
   5   1.6000E-08  1.0000E-08  2.0000E-09  2.0000E-09  2.0000E-09  2.0000E-09  2.0000E-09  2.0000E-09  2.0000E-09  2.0000E-09
   6   1.6000E-08  1.0000E-08  1.0000E-08  4.0000E-09  4.0000E-09  2.0000E-09  2.0000E-09  2.0000E-09  2.0000E-09  1.0000E-08
   7   1.6000E-08  1.0000E-08  1.0000E-08  4.0000E-09  4.0000E-09  2.0000E-09  2.0000E-09  4.0000E-09  4.0000E-09   0.000    
   8    0.000      1.0000E-08  1.0000E-08  4.0000E-09  4.0000E-09  2.0000E-09  2.0000E-09  4.0000E-09  1.0000E-08   0.000    
   9    0.000      1.0000E-08  1.0000E-08  4.0000E-09  4.0000E-09  2.0000E-09  2.0000E-09  4.0000E-09  1.0000E-08   0.000    
  10    0.000      1.0000E-08  1.0000E-08  4.0000E-09  4.0000E-09  2.0000E-09  2.0000E-09  4.0000E-09  1.0000E-08  1.6000E-08
  11    0.000      2.0000E-09  2.0000E-09  2.0000E-09  2.0000E-09  2.0000E-09  2.0000E-09  4.0000E-09  1.0000E-08   0.000    
  12   2.0000E-09  2.0000E-09  2.0000E-09  2.0000E-09  2.0000E-09  2.0000E-09  2.0000E-09  2.0000E-09  4.0000E-09   0.000    
  13   2.0000E-09  2.0000E-09  4.0000E-09  4.0000E-09  4.0000E-09  4.0000E-09  4.0000E-09  2.0000E-09  2.0000E-09   0.000    
  14    0.000      4.0000E-09  1.0000E-08  1.0000E-08  1.0000E-08  1.0000E-08  1.0000E-08  4.0000E-09  2.0000E-09   0.000    
  15    0.000       0.000      1.6000E-08  1.6000E-08  1.6000E-08  1.6000E-08   0.000       0.000       0.000       0.000    

USING ET RATE FROM PREVIOUS STRESS PERIOD. CURRENT PERIOD IS:      10

 USING ET EXTINCTION DEPTH FROM PREVIOUS STRESS PERIOD. CURRENT PERIOD IS:      10

 USING EXTINCTION WATER CONTENT FROM PREVIOUS STRESS PERIOD. CURRENT PERIOD IS:      10
 
 SOLVING FOR HEAD 
                                                   Max.-Head-Change                         Max.-Flux-Residual
  Residual-Control   Outer-Iter.   Inner-Iter.     Column Row Layer    Maximum-Head-Change  Column Row Layer    Maximum-Flux-Residual          L2-NORM 
          0                 1           2             4    8     1       0.2395707437E-01       4    8    1         0.1325990711E+01      0.3850265689E+01
          0                 2           2             4    8     1      -0.2373934202E-02       4    8    1        -0.1325994775E+00      0.3849409270E+00
          0                 3           2             4    8     1       0.2117135199E-03       4    8    1         0.1193395046E-01      0.3463636123E-01
          0                 4           1             4    8     1      -0.1680437599E-04       4    8    1        -0.9559097125E-03      0.2773548735E-02

    ------------------------------------------------
       NWT REQUIRED            4 OUTER ITERATIONS 
       AND A TOTAL OF          7 INNER ITERATIONS.
    ------------------------------------------------

 NO OUTPUT CONTROL FOR STRESS PERIOD   10   TIME STEP    1
 
 SOLVING FOR HEAD 
                                                   Max.-Head-Change                         Max.-Flux-Residual
  Residual-Control   Outer-Iter.   Inner-Iter.     Column Row Layer    Maximum-Head-Change  Column Row Layer    Maximum-Flux-Residual          L2-NORM 
          0                 1           2             4    8     1       0.2619696581E-01       4    8    1         0.1318950083E+01      0.3806609657E+01
          0                 2           2             4    8     1      -0.2595888775E-02       4    8    1        -0.1318954844E+00      0.3805774357E+00
          0                 3           2             4    8     1       0.2315079846E-03       4    8    1         0.1187059040E-01      0.3424407323E-01
          0                 4           1             4    8     1      -0.1837552574E-04       4    8    1        -0.9508345677E-03      0.2742245007E-02

    ------------------------------------------------
       NWT REQUIRED            4 OUTER ITERATIONS 
       AND A TOTAL OF          7 INNER ITERATIONS.
    ------------------------------------------------

 NO OUTPUT CONTROL FOR STRESS PERIOD   10   TIME STEP    2
 
 SOLVING FOR HEAD 
                                                   Max.-Head-Change                         Max.-Flux-Residual
  Residual-Control   Outer-Iter.   Inner-Iter.     Column Row Layer    Maximum-Head-Change  Column Row Layer    Maximum-Flux-Residual          L2-NORM 
          0                 1           2             4    8     1       0.2862677662E-01       4    8    1         0.1311149413E+01      0.3760633842E+01
          0                 2           2             4    8     1      -0.2836663147E-02       4    8    1        -0.1311155009E+00      0.3759826636E+00
          0                 3           2             4    8     1       0.2529808421E-03       4    8    1         0.1180039104E-01      0.3383083670E-01
          0                 4           1             4    8     1      -0.2007989431E-04       4    8    1        -0.9452115874E-03      0.2709247568E-02

    ------------------------------------------------
       NWT REQUIRED            4 OUTER ITERATIONS 
       AND A TOTAL OF          7 INNER ITERATIONS.
    ------------------------------------------------

 NO OUTPUT CONTROL FOR STRESS PERIOD   10   TIME STEP    3
 
 SOLVING FOR HEAD 
                                                   Max.-Head-Change                         Max.-Flux-Residual
  Residual-Control   Outer-Iter.   Inner-Iter.     Column Row Layer    Maximum-Head-Change  Column Row Layer    Maximum-Flux-Residual          L2-NORM 
          0                 1           2             4    8     1       0.3125813786E-01       4    8    1         0.1302509062E+01      0.3712307793E+01
          0                 2           2             4    8     1      -0.3097410015E-02       4    8    1        -0.1302515661E+00      0.3711533929E+00
          0                 3           2             4    8     1       0.2762348924E-03       4    8    1         0.1172263592E-01      0.3339653408E-01
          0                 4           1             4    8     1      -0.2192564270E-04       4    8    1        -0.9389834247E-03      0.2674467760E-02

    ------------------------------------------------
       NWT REQUIRED            4 OUTER ITERATIONS 
       AND A TOTAL OF          7 INNER ITERATIONS.
    ------------------------------------------------

 NO OUTPUT CONTROL FOR STRESS PERIOD   10   TIME STEP    4
 
 SOLVING FOR HEAD 
                                                   Max.-Head-Change                         Max.-Flux-Residual
  Residual-Control   Outer-Iter.   Inner-Iter.     Column Row Layer    Maximum-Head-Change  Column Row Layer    Maximum-Flux-Residual          L2-NORM 
          0                 1           2             4    8     1       0.3410237798E-01       4    8    1         0.1292945229E+01      0.3661612792E+01
          0                 2           2             4    8     1      -0.3379252140E-02       4    8    1        -0.1292953033E+00      0.3660879574E+00
          0                 3           2             4    8     1       0.3013702625E-03       4    8    1         0.1163657107E-01      0.3294113083E-01
          0                 4           1             4    8     1      -0.2392071752E-04       4    8    1        -0.9320896340E-03      0.2638051403E-02

    ------------------------------------------------
       NWT REQUIRED            4 OUTER ITERATIONS 
       AND A TOTAL OF          7 INNER ITERATIONS.
    ------------------------------------------------

 OUTPUT CONTROL FOR STRESS PERIOD   10   TIME STEP    5
    PRINT BUDGET
    SAVE BUDGET

  HEAD DEP BOUNDS   PERIOD   10   STEP     5
 BOUNDARY      1   LAYER   1   ROW    13   COL     1   RATE   -0.275606    
 BOUNDARY      2   LAYER   1   ROW    14   COL     9   RATE    0.295909    



 STREAM LISTING     PERIOD     10   STEP        5

 LAYER ROW COL. STREAM  RCH.  FLOW INTO     FLOW TO   FLOW OUT OF   OVRLND.     DIRECT     STREAM       STREAM     STREAM     STREAM   STREAMBED  STREAMBED
                SEG.NO.  NO.  STRM. RCH.    AQUIFER    STRM. RCH.    RUNOFF     PRECIP       ET          HEAD       DEPTH      WIDTH   CONDCTNC.   GRADIENT

   1    1    1     1     1    2.5000E+01  2.4540E-01   2.4862E+01  1.074E-01  0.000E+00  0.000E+00  1.09423E+03  1.179E+00  1.305E+01  5.872E-02  1.393E+00
   1    2    2     1     2    2.4862E+01  3.8046E-01   2.4649E+01  1.670E-01  0.000E+00  0.000E+00  1.08924E+03  1.177E+00  1.301E+01  9.110E-02  1.392E+00
   1    3    3     1     3    2.4649E+01  3.2489E-01   2.4467E+01  1.432E-01  0.000E+00  0.000E+00  1.08359E+03  1.174E+00  1.297E+01  7.784E-02  1.391E+00
   1    3    4     1     4    2.4467E+01  2.9952E-01   2.4300E+01  1.324E-01  0.000E+00  0.000E+00  1.07858E+03  1.171E+00  1.294E+01  7.181E-02  1.390E+00
   1    4    5     2     1    1.4300E+01  3.0104E-01   1.4072E+01  7.358E-02  0.000E+00  0.000E+00  1.07279E+03  8.595E-01  1.200E+01  7.800E-02  1.287E+00
   1    5    6     2     2    1.4072E+01  2.3113E-01   1.3898E+01  5.660E-02  0.000E+00  0.000E+00  1.06736E+03  8.522E-01  1.200E+01  6.000E-02  1.284E+00
   1    6    6     2     3    1.3898E+01  2.3075E-01   1.3724E+01  5.660E-02  0.000E+00  0.000E+00  1.06264E+03  8.458E-01  1.200E+01  6.000E-02  1.282E+00
   1    7    6     2     4    1.3724E+01  2.3036E-01   1.3550E+01  5.660E-02  0.000E+00  0.000E+00  1.05791E+03  8.394E-01  1.200E+01  6.000E-02  1.280E+00
   1    8    6     2     5    1.3550E+01  2.2998E-01   1.3376E+01  5.660E-02  0.000E+00  0.000E+00  1.05319E+03  8.330E-01  1.200E+01  6.000E-02  1.278E+00
   1    3    5     3     1    1.0000E+01  2.8252E-01   1.0136E+01  4.182E-01  0.000E+00  0.000E+00  1.07555E+03  1.909E+00  9.636E+00  7.227E-02  1.955E+00
   1    3    6     3     2    1.0136E+01  2.4905E-01   1.0305E+01  4.182E-01  0.000E+00  0.000E+00  1.07264E+03  1.727E+00  8.909E+00  6.682E-02  1.864E+00
   1    3    7     3     3    1.0305E+01  1.9718E-01   1.0484E+01  3.764E-01  0.000E+00  0.000E+00  1.06987E+03  1.555E+00  8.218E+00  5.547E-02  1.777E+00
   1    4    8     3     4    1.0484E+01  2.2567E-01   1.0760E+01  5.018E-01  0.000E+00  0.000E+00  1.06682E+03  1.364E+00  7.455E+00  6.709E-02  1.682E+00
   1    5    8     3     5    1.0760E+01  1.5790E-01   1.1020E+01  4.182E-01  0.000E+00  0.000E+00  1.06362E+03  1.164E+00  6.655E+00  4.991E-02  1.582E+00
   1    6    8     3     6    1.1020E+01  5.5980E-02   1.1132E+01  1.673E-01  0.000E+00  0.000E+00  1.06158E+03  1.036E+00  6.145E+00  1.844E-02  1.518E+00
   1    5   10     4     1    1.0000E+01  9.0955E-02   9.9829E+00  7.386E-02  0.000E+00  0.000E+00  1.07837E+03  6.382E-01  1.000E+01  2.500E-02  1.213E+00
   1    5    9     4     2    9.9829E+00  1.8186E-01   9.9488E+00  1.477E-01  0.000E+00  0.000E+00  1.07155E+03  6.372E-01  1.000E+01  5.000E-02  1.212E+00
   1    6    8     4     3    9.9488E+00  1.2726E-01   9.9249E+00  1.034E-01  0.000E+00  0.000E+00  1.06382E+03  6.361E-01  1.000E+01  3.500E-02  1.212E+00
   1    6    8     5     1    2.1057E+01  3.6487E-01   2.0825E+01  1.333E-01  0.000E+00  0.000E+00  1.05887E+03  8.699E-01  2.357E+01  9.428E-02  1.290E+00
   1    7    7     5     2    2.0825E+01  4.5226E-01   2.0539E+01  1.667E-01  0.000E+00  0.000E+00  1.05437E+03  8.661E-01  2.340E+01  1.170E-01  1.289E+00
   1    8    7     5     3    2.0539E+01  3.1407E-01   2.0342E+01  1.167E-01  0.000E+00  0.000E+00  1.05011E+03  8.626E-01  2.323E+01  8.131E-02  1.288E+00
   1    8    6     5     4    2.0342E+01  2.2308E-01   2.0202E+01  8.333E-02  0.000E+00  0.000E+00  1.04711E+03  8.601E-01  2.312E+01  5.779E-02  1.287E+00
   1    9    6     6     1    3.3579E+01  2.6745E-01   3.3584E+01  2.727E-01  0.000E+00  0.000E+00  1.04418E+03  1.458E+00  1.200E+01  6.000E-02  1.486E+00
   1   10    7     6     2    3.3584E+01  2.6746E-01   3.3589E+01  2.727E-01  0.000E+00  0.000E+00  1.03964E+03  1.458E+00  1.200E+01  6.000E-02  1.486E+00
   1   11    7     6     3    3.3589E+01  2.6747E-01   3.3595E+01  2.727E-01  0.000E+00  0.000E+00  1.03509E+03  1.458E+00  1.200E+01  6.000E-02  1.486E+00
   1   12    7     6     4    3.3595E+01  2.6748E-01   3.3600E+01  2.727E-01  0.000E+00  0.000E+00  1.03055E+03  1.458E+00  1.200E+01  6.000E-02  1.486E+00
   1   13    7     6     5    3.3600E+01  4.3345E-02   3.3666E+01  1.091E-01  0.000E+00  0.000E+00  1.02737E+03  1.459E+00  1.200E+01  2.400E-02  6.020E-01
   1   14    9     7     1    1.5000E+02  1.4854E+00   1.4876E+02  2.500E-01  0.000E+00  0.000E+00  1.03987E+03  2.288E+00  5.530E+01  5.593E-01  8.852E-01
   1   13    8     7     2    1.4876E+02  2.3151E+00   1.4672E+02  2.750E-01  0.000E+00  0.000E+00  1.03478E+03  2.279E+00  5.526E+01  6.148E-01  1.255E+00
   1   13    7     7     3    1.4672E+02  2.3036E+00   1.4467E+02  2.500E-01  0.000E+00  0.000E+00  1.02969E+03  2.268E+00  5.521E+01  5.583E-01  1.375E+00
   1   13    6     8     1    1.7834E+02  1.8531E+00   1.7793E+02  1.446E+00  0.000E+00  0.000E+00  1.02488E+03  3.004E+00  4.356E+01  4.439E-01  1.391E+00
   1   13    5     8     2    1.7793E+02  1.2871E+00   1.7809E+02  1.446E+00  0.000E+00  0.000E+00  1.01863E+03  3.004E+00  4.355E+01  4.438E-01  9.667E-01
   1   13    4     8     3    1.7809E+02  3.9172E-01   1.7914E+02  1.446E+00  0.000E+00  0.000E+00  1.01238E+03  3.007E+00  4.361E+01  4.444E-01  2.938E-01
   1   13    3     8     4    1.7914E+02 -1.0614E+00   1.8165E+02  1.446E+00  0.000E+00  0.000E+00  1.00614E+03  3.019E+00  4.377E+01  4.460E+00 -7.932E-02
   1   13    2     8     5    1.8165E+02 -1.1425E+00   1.8424E+02  1.446E+00  0.000E+00  0.000E+00  9.99910E+02  3.035E+00  4.400E+01  4.484E+00 -8.494E-02
   1   13    1     8     6    1.8424E+02 -8.9104E-01   1.8600E+02  8.679E-01  0.000E+00  0.000E+00  9.94923E+02  3.048E+00  4.420E+01  2.702E+00 -1.099E-01



 UBDSV3 SAVING "     NETRECHARGE" ON UNIT 100 AT TIME STEP  5, STRESS PERIOD  10
 UBDSV3 SAVING "    NETDISCHARGE" ON UNIT 101 AT TIME STEP  5, STRESS PERIOD  10
 UBDSV3 SAVING "           GW ET" ON UNIT  61 AT TIME STEP  5, STRESS PERIOD  10
 UBDSV3 SAVING "    UZF RECHARGE" ON UNIT  61 AT TIME STEP  5, STRESS PERIOD  10
 UBDSV3 SAVING " SURFACE LEAKAGE" ON UNIT  61 AT TIME STEP  5, STRESS PERIOD  10
 UBDSV3 SAVING "       HORT+DUNN" ON UNIT  61 AT TIME STEP  5, STRESS PERIOD  10
 UBDSV3 SAVING "  STORAGE CHANGE" ON UNIT  61 AT TIME STEP  5, STRESS PERIOD  10


UNSATURATED ZONE PACKAGE VOLUMETRIC BUDGET FOR  TIME STEP     5 STRESS PERIOD   10
  ------------------------------------------------------------------------------



     CUMULATIVE VOLUMES      L**3       RATES FOR THIS TIME STEP      L**3/T
     ------------------                 ------------------------

           IN:                                      IN:
           ---                                      ---
        INFILTRATION =    70055210.9893          INFILTRATION =           2.9000

          OUT:                                     OUT:
          ----                                     ----
              UZF ET =    20743711.2567                UZF ET =           1.1723
        UZF RECHARGE =     7879692.3965          UZF RECHARGE =       0.0000E+00

            IN - OUT =    41431807.3360              IN - OUT =           1.7277

          STORAGE:                                 STORAGE:
          --------                                 --------
      STORAGE CHANGE =    41431802.7066        STORAGE CHANGE =           1.7277

 PERCENT DISCREPANCY IS DIFFERENCE BETWEEN IN-OUT MINUS CHANGE IN STORAGE
 DIVIDED BY THE AVERAGE OF IN AND OUT TIMES 100

 PERCENT DISCREPANCY =           0.00     PERCENT DISCREPANCY =           0.00






1
  VOLUMETRIC BUDGET FOR ENTIRE MODEL AT END OF TIME STEP    5, STRESS PERIOD  10
  ------------------------------------------------------------------------------

     CUMULATIVE VOLUMES      L**3       RATES FOR THIS TIME STEP      L**3/T
     ------------------                 ------------------------

           IN:                                      IN:
           ---                                      ---
             STORAGE =   428860160.0000               STORAGE =           5.8440
       CONSTANT HEAD =           0.0000         CONSTANT HEAD =           0.0000
               WELLS =           0.0000                 WELLS =           0.0000
     HEAD DEP BOUNDS =     7121153.0000       HEAD DEP BOUNDS =           0.2959
      STREAM LEAKAGE =   394250464.0000        STREAM LEAKAGE =          16.1454
        UZF RECHARGE =     7879697.5000          UZF RECHARGE =           0.0000
               GW ET =           0.0000                 GW ET =           0.0000
     SURFACE LEAKAGE =           0.0000       SURFACE LEAKAGE =           0.0000

            TOTAL IN =   838111488.0000              TOTAL IN =          22.2854

          OUT:                                     OUT:
          ----                                     ----
             STORAGE =   114747576.0000               STORAGE =          12.7673
       CONSTANT HEAD =           0.0000         CONSTANT HEAD =           0.0000
               WELLS =   499320032.0000                 WELLS =           0.0000
     HEAD DEP BOUNDS =     6860173.0000       HEAD DEP BOUNDS =           0.2756
      STREAM LEAKAGE =    81175328.0000        STREAM LEAKAGE =           3.0949
        UZF RECHARGE =           0.0000          UZF RECHARGE =           0.0000
               GW ET =   136021440.0000                 GW ET =           6.1472
     SURFACE LEAKAGE =           0.0000       SURFACE LEAKAGE =           0.0000

           TOTAL OUT =   838124480.0000             TOTAL OUT =          22.2850

            IN - OUT =      -12992.0000              IN - OUT =       3.5477E-04

 PERCENT DISCREPANCY =          -0.00     PERCENT DISCREPANCY =           0.00






         TIME SUMMARY AT END OF TIME STEP    5 IN STRESS PERIOD   10
                    SECONDS     MINUTES      HOURS       DAYS        YEARS
                    -----------------------------------------------------------
   TIME STEP LENGTH 1.21100E+05  2018.3      33.639      1.4016     3.83743E-03
 STRESS PERIOD TIME 5.04972E+05  8416.2      140.27      5.8446     1.60016E-02
         TOTAL TIME 2.41570E+07 4.02616E+05  6710.3      279.59     0.76549    
1
 
 SOLVING FOR HEAD 
                                                   Max.-Head-Change                         Max.-Flux-Residual
  Residual-Control   Outer-Iter.   Inner-Iter.     Column Row Layer    Maximum-Head-Change  Column Row Layer    Maximum-Flux-Residual          L2-NORM 
          0                 1           2             4    8     1       0.3716973777E-01       4    8    1         0.1282351318E+01      0.3608526838E+01
          0                 2           2             4    8     1      -0.3683204570E-02       4    8    1        -0.1282360569E+00      0.3607840241E+00
          0                 3           2             4    8     1       0.3284774758E-03       4    8    1         0.1154123745E-01      0.3246407428E-01
          0                 4           1             4    8     1      -0.2607230452E-04       4    8    1        -0.9244534424E-03      0.2599833838E-02

    ------------------------------------------------
       NWT REQUIRED            4 OUTER ITERATIONS 
       AND A TOTAL OF          7 INNER ITERATIONS.
    ------------------------------------------------

 NO OUTPUT CONTROL FOR STRESS PERIOD   10   TIME STEP    6
 
 SOLVING FOR HEAD 
                                                   Max.-Head-Change                         Max.-Flux-Residual
  Residual-Control   Outer-Iter.   Inner-Iter.     Column Row Layer    Maximum-Head-Change  Column Row Layer    Maximum-Flux-Residual          L2-NORM 
          0                 1           2             4    8     1       0.4046989854E-01       4    8    1         0.1270635964E+01      0.3553095761E+01
          0                 2           2             4    8     1      -0.4010227003E-02       4    8    1        -0.1270646954E+00      0.3552465647E+00
          0                 3           2             4    8     1       0.3576421160E-03       4    8    1         0.1143581321E-01      0.3196630126E-01
          0                 4           1             4    8     1      -0.2838719435E-04       4    8    1        -0.9160089649E-03      0.2560069851E-02

    ------------------------------------------------
       NWT REQUIRED            4 OUTER ITERATIONS 
       AND A TOTAL OF          7 INNER ITERATIONS.
    ------------------------------------------------

 NO OUTPUT CONTROL FOR STRESS PERIOD   10   TIME STEP    7
 
 SOLVING FOR HEAD 
                                                   Max.-Head-Change                         Max.-Flux-Residual
  Residual-Control   Outer-Iter.   Inner-Iter.     Column Row Layer    Maximum-Head-Change  Column Row Layer    Maximum-Flux-Residual          L2-NORM 
          0                 1           2             4    8     1       0.4401045222E-01       4    8    1         0.1257681960E+01      0.3495282995E+01
          0                 2           2             4    8     1      -0.4361072194E-02       4    8    1        -0.1257695032E+00      0.3494701434E+00
          0                 3           2             4    8     1       0.3889313105E-03       4    8    1         0.1131924385E-01      0.3144686307E-01
          0                 4           1             4    8     1      -0.3087071789E-04       4    8    1        -0.9066717626E-03      0.2518536674E-02

    ------------------------------------------------
       NWT REQUIRED            4 OUTER ITERATIONS 
       AND A TOTAL OF          7 INNER ITERATIONS.
    ------------------------------------------------

 NO OUTPUT CONTROL FOR STRESS PERIOD   10   TIME STEP    8
 
 SOLVING FOR HEAD 
                                                   Max.-Head-Change                         Max.-Flux-Residual
  Residual-Control   Outer-Iter.   Inner-Iter.     Column Row Layer    Maximum-Head-Change  Column Row Layer    Maximum-Flux-Residual          L2-NORM 
          0                 1           2             4    8     1       0.4779696865E-01       4    8    1         0.1243371956E+01      0.3435126730E+01
          0                 2           2             4    8     1      -0.4736292662E-02       4    8    1        -0.1243387517E+00      0.3434598616E+00
          0                 3           2             4    8     1       0.4223943306E-03       4    8    1         0.1119047376E-01      0.3090644542E-01
          0                 4           1             4    8     1      -0.3352678541E-04       4    8    1        -0.8963573023E-03      0.2475239428E-02

    ------------------------------------------------
       NWT REQUIRED            4 OUTER ITERATIONS 
       AND A TOTAL OF          7 INNER ITERATIONS.
    ------------------------------------------------

 NO OUTPUT CONTROL FOR STRESS PERIOD   10   TIME STEP    9
 
 SOLVING FOR HEAD 
                                                   Max.-Head-Change                         Max.-Flux-Residual
  Residual-Control   Outer-Iter.   Inner-Iter.     Column Row Layer    Maximum-Head-Change  Column Row Layer    Maximum-Flux-Residual          L2-NORM 
          0                 1           2             4    8     1       0.5183246995E-01       4    8    1         0.1227590892E+01      0.3372563454E+01
          0                 2           2             4    8     1      -0.5136825351E-02       4    8    1        -0.1227609415E+00      0.3374546298E+00
          0                 3           2             4    8     1       0.4581147240E-03       4    8    1         0.1104846816E-01      0.3036649455E-01
          0                 4           1             4    8     1      -0.3636202720E-04       4    8    1        -0.8849826631E-03      0.2432001389E-02

    ------------------------------------------------
       NWT REQUIRED            4 OUTER ITERATIONS 
       AND A TOTAL OF          7 INNER ITERATIONS.
    ------------------------------------------------

 OUTPUT CONTROL FOR STRESS PERIOD   10   TIME STEP   10
    PRINT BUDGET
    SAVE BUDGET

  HEAD DEP BOUNDS   PERIOD   10   STEP    10
 BOUNDARY      1   LAYER   1   ROW    13   COL     1   RATE   -0.274951    
 BOUNDARY      2   LAYER   1   ROW    14   COL     9   RATE    0.295981    



 STREAM LISTING     PERIOD     10   STEP       10

 LAYER ROW COL. STREAM  RCH.  FLOW INTO     FLOW TO   FLOW OUT OF   OVRLND.     DIRECT     STREAM       STREAM     STREAM     STREAM   STREAMBED  STREAMBED
                SEG.NO.  NO.  STRM. RCH.    AQUIFER    STRM. RCH.    RUNOFF     PRECIP       ET          HEAD       DEPTH      WIDTH   CONDCTNC.   GRADIENT

   1    1    1     1     1    2.5000E+01  2.4540E-01   2.4862E+01  1.074E-01  0.000E+00  0.000E+00  1.09423E+03  1.179E+00  1.305E+01  5.872E-02  1.393E+00
   1    2    2     1     2    2.4862E+01  3.8046E-01   2.4649E+01  1.670E-01  0.000E+00  0.000E+00  1.08924E+03  1.177E+00  1.301E+01  9.110E-02  1.392E+00
   1    3    3     1     3    2.4649E+01  3.2489E-01   2.4467E+01  1.432E-01  0.000E+00  0.000E+00  1.08359E+03  1.174E+00  1.297E+01  7.784E-02  1.391E+00
   1    3    4     1     4    2.4467E+01  2.9952E-01   2.4300E+01  1.324E-01  0.000E+00  0.000E+00  1.07858E+03  1.171E+00  1.294E+01  7.181E-02  1.390E+00
   1    4    5     2     1    1.4300E+01  3.0104E-01   1.4072E+01  7.358E-02  0.000E+00  0.000E+00  1.07279E+03  8.595E-01  1.200E+01  7.800E-02  1.287E+00
   1    5    6     2     2    1.4072E+01  2.3113E-01   1.3898E+01  5.660E-02  0.000E+00  0.000E+00  1.06736E+03  8.522E-01  1.200E+01  6.000E-02  1.284E+00
   1    6    6     2     3    1.3898E+01  2.3075E-01   1.3724E+01  5.660E-02  0.000E+00  0.000E+00  1.06264E+03  8.458E-01  1.200E+01  6.000E-02  1.282E+00
   1    7    6     2     4    1.3724E+01  2.3036E-01   1.3550E+01  5.660E-02  0.000E+00  0.000E+00  1.05791E+03  8.394E-01  1.200E+01  6.000E-02  1.280E+00
   1    8    6     2     5    1.3550E+01  2.2998E-01   1.3376E+01  5.660E-02  0.000E+00  0.000E+00  1.05319E+03  8.330E-01  1.200E+01  6.000E-02  1.278E+00
   1    3    5     3     1    1.0000E+01  2.8252E-01   1.0136E+01  4.182E-01  0.000E+00  0.000E+00  1.07555E+03  1.909E+00  9.636E+00  7.227E-02  1.955E+00
   1    3    6     3     2    1.0136E+01  2.4905E-01   1.0305E+01  4.182E-01  0.000E+00  0.000E+00  1.07264E+03  1.727E+00  8.909E+00  6.682E-02  1.864E+00
   1    3    7     3     3    1.0305E+01  1.9718E-01   1.0484E+01  3.764E-01  0.000E+00  0.000E+00  1.06987E+03  1.555E+00  8.218E+00  5.547E-02  1.777E+00
   1    4    8     3     4    1.0484E+01  2.2567E-01   1.0760E+01  5.018E-01  0.000E+00  0.000E+00  1.06682E+03  1.364E+00  7.455E+00  6.709E-02  1.682E+00
   1    5    8     3     5    1.0760E+01  1.5790E-01   1.1020E+01  4.182E-01  0.000E+00  0.000E+00  1.06362E+03  1.164E+00  6.655E+00  4.991E-02  1.582E+00
   1    6    8     3     6    1.1020E+01  5.5980E-02   1.1132E+01  1.673E-01  0.000E+00  0.000E+00  1.06158E+03  1.036E+00  6.145E+00  1.844E-02  1.518E+00
   1    5   10     4     1    1.0000E+01  9.0955E-02   9.9829E+00  7.386E-02  0.000E+00  0.000E+00  1.07837E+03  6.382E-01  1.000E+01  2.500E-02  1.213E+00
   1    5    9     4     2    9.9829E+00  1.8186E-01   9.9488E+00  1.477E-01  0.000E+00  0.000E+00  1.07155E+03  6.372E-01  1.000E+01  5.000E-02  1.212E+00
   1    6    8     4     3    9.9488E+00  1.2726E-01   9.9249E+00  1.034E-01  0.000E+00  0.000E+00  1.06382E+03  6.361E-01  1.000E+01  3.500E-02  1.212E+00
   1    6    8     5     1    2.1057E+01  3.6487E-01   2.0825E+01  1.333E-01  0.000E+00  0.000E+00  1.05887E+03  8.699E-01  2.357E+01  9.428E-02  1.290E+00
   1    7    7     5     2    2.0825E+01  4.5226E-01   2.0539E+01  1.667E-01  0.000E+00  0.000E+00  1.05437E+03  8.661E-01  2.340E+01  1.170E-01  1.289E+00
   1    8    7     5     3    2.0539E+01  3.1407E-01   2.0342E+01  1.167E-01  0.000E+00  0.000E+00  1.05011E+03  8.626E-01  2.323E+01  8.131E-02  1.288E+00
   1    8    6     5     4    2.0342E+01  2.2308E-01   2.0202E+01  8.333E-02  0.000E+00  0.000E+00  1.04711E+03  8.601E-01  2.312E+01  5.779E-02  1.287E+00
   1    9    6     6     1    3.3579E+01  2.6745E-01   3.3584E+01  2.727E-01  0.000E+00  0.000E+00  1.04418E+03  1.458E+00  1.200E+01  6.000E-02  1.486E+00
   1   10    7     6     2    3.3584E+01  2.6746E-01   3.3589E+01  2.727E-01  0.000E+00  0.000E+00  1.03964E+03  1.458E+00  1.200E+01  6.000E-02  1.486E+00
   1   11    7     6     3    3.3589E+01  2.6747E-01   3.3595E+01  2.727E-01  0.000E+00  0.000E+00  1.03509E+03  1.458E+00  1.200E+01  6.000E-02  1.486E+00
   1   12    7     6     4    3.3595E+01  2.6748E-01   3.3600E+01  2.727E-01  0.000E+00  0.000E+00  1.03055E+03  1.458E+00  1.200E+01  6.000E-02  1.486E+00
   1   13    7     6     5    3.3600E+01  4.3671E-02   3.3665E+01  1.091E-01  0.000E+00  0.000E+00  1.02737E+03  1.459E+00  1.200E+01  2.400E-02  6.065E-01
   1   14    9     7     1    1.5000E+02  1.4864E+00   1.4876E+02  2.500E-01  0.000E+00  0.000E+00  1.03987E+03  2.288E+00  5.530E+01  5.593E-01  8.859E-01
   1   13    8     7     2    1.4876E+02  2.3192E+00   1.4672E+02  2.750E-01  0.000E+00  0.000E+00  1.03478E+03  2.279E+00  5.526E+01  6.148E-01  1.257E+00
   1   13    7     7     3    1.4672E+02  2.3111E+00   1.4466E+02  2.500E-01  0.000E+00  0.000E+00  1.02969E+03  2.268E+00  5.521E+01  5.583E-01  1.380E+00
   1   13    6     8     1    1.7832E+02  1.8617E+00   1.7791E+02  1.446E+00  0.000E+00  0.000E+00  1.02488E+03  3.004E+00  4.356E+01  4.439E-01  1.398E+00
   1   13    5     8     2    1.7791E+02  1.2951E+00   1.7806E+02  1.446E+00  0.000E+00  0.000E+00  1.01863E+03  3.003E+00  4.355E+01  4.438E-01  9.728E-01
   1   13    4     8     3    1.7806E+02  3.9893E-01   1.7911E+02  1.446E+00  0.000E+00  0.000E+00  1.01238E+03  3.007E+00  4.360E+01  4.443E-01  2.993E-01
   1   13    3     8     4    1.7911E+02 -9.9655E-01   1.8155E+02  1.446E+00  0.000E+00  0.000E+00  1.00614E+03  3.018E+00  4.376E+01  4.460E+00 -7.449E-02
   1   13    2     8     5    1.8155E+02 -1.0729E+00   1.8407E+02  1.446E+00  0.000E+00  0.000E+00  9.99909E+02  3.034E+00  4.399E+01  4.483E+00 -7.979E-02
   1   13    1     8     6    1.8407E+02 -8.4731E-01   1.8578E+02  8.679E-01  0.000E+00  0.000E+00  9.94922E+02  3.047E+00  4.418E+01  2.701E+00 -1.046E-01



 UBDSV3 SAVING "     NETRECHARGE" ON UNIT 100 AT TIME STEP 10, STRESS PERIOD  10
 UBDSV3 SAVING "    NETDISCHARGE" ON UNIT 101 AT TIME STEP 10, STRESS PERIOD  10
 UBDSV3 SAVING "           GW ET" ON UNIT  61 AT TIME STEP 10, STRESS PERIOD  10
 UBDSV3 SAVING "    UZF RECHARGE" ON UNIT  61 AT TIME STEP 10, STRESS PERIOD  10
 UBDSV3 SAVING " SURFACE LEAKAGE" ON UNIT  61 AT TIME STEP 10, STRESS PERIOD  10
 UBDSV3 SAVING "       HORT+DUNN" ON UNIT  61 AT TIME STEP 10, STRESS PERIOD  10
 UBDSV3 SAVING "  STORAGE CHANGE" ON UNIT  61 AT TIME STEP 10, STRESS PERIOD  10


UNSATURATED ZONE PACKAGE VOLUMETRIC BUDGET FOR  TIME STEP    10 STRESS PERIOD   10
  ------------------------------------------------------------------------------



     CUMULATIVE VOLUMES      L**3       RATES FOR THIS TIME STEP      L**3/T
     ------------------                 ------------------------

           IN:                                      IN:
           ---                                      ---
        INFILTRATION =    72413670.2568          INFILTRATION =           2.9000

          OUT:                                     OUT:
          ----                                     ----
              UZF ET =    21695315.5832                UZF ET =           1.1603
        UZF RECHARGE =     7879692.3965          UZF RECHARGE =       0.0000E+00

            IN - OUT =    42838662.2772              IN - OUT =           1.7397

          STORAGE:                                 STORAGE:
          --------                                 --------
      STORAGE CHANGE =    42838657.6267        STORAGE CHANGE =           1.7397

 PERCENT DISCREPANCY IS DIFFERENCE BETWEEN IN-OUT MINUS CHANGE IN STORAGE
 DIVIDED BY THE AVERAGE OF IN AND OUT TIMES 100

 PERCENT DISCREPANCY =           0.00     PERCENT DISCREPANCY =           0.00






1
  VOLUMETRIC BUDGET FOR ENTIRE MODEL AT END OF TIME STEP   10, STRESS PERIOD  10
  ------------------------------------------------------------------------------

     CUMULATIVE VOLUMES      L**3       RATES FOR THIS TIME STEP      L**3/T
     ------------------                 ------------------------

           IN:                                      IN:
           ---                                      ---
             STORAGE =   433314592.0000               STORAGE =           5.2408
       CONSTANT HEAD =           0.0000         CONSTANT HEAD =           0.0000
               WELLS =           0.0000                 WELLS =           0.0000
     HEAD DEP BOUNDS =     7361839.0000       HEAD DEP BOUNDS =           0.2960
      STREAM LEAKAGE =   407399232.0000        STREAM LEAKAGE =          16.1823
        UZF RECHARGE =     7879697.5000          UZF RECHARGE =           0.0000
               GW ET =           0.0000                 GW ET =           0.0000
     SURFACE LEAKAGE =           0.0000       SURFACE LEAKAGE =           0.0000

            TOTAL IN =   855955328.0000              TOTAL IN =          21.7190

          OUT:                                     OUT:
          ----                                     ----
             STORAGE =   124944776.0000               STORAGE =          12.3787
       CONSTANT HEAD =           0.0000         CONSTANT HEAD =           0.0000
               WELLS =   499320032.0000                 WELLS =           0.0000
     HEAD DEP BOUNDS =     7083974.5000       HEAD DEP BOUNDS =           0.2750
      STREAM LEAKAGE =    83598488.0000        STREAM LEAKAGE =           2.9168
        UZF RECHARGE =           0.0000          UZF RECHARGE =           0.0000
               GW ET =   141020848.0000                 GW ET =           6.1482
     SURFACE LEAKAGE =           0.0000       SURFACE LEAKAGE =           0.0000

           TOTAL OUT =   855968128.0000             TOTAL OUT =          21.7187

            IN - OUT =      -12800.0000              IN - OUT =       3.6621E-04

 PERCENT DISCREPANCY =          -0.00     PERCENT DISCREPANCY =           0.00






         TIME SUMMARY AT END OF TIME STEP   10 IN STRESS PERIOD   10
                    SECONDS     MINUTES      HOURS       DAYS        YEARS
                    -----------------------------------------------------------
   TIME STEP LENGTH 1.95033E+05  3250.6      54.176      2.2573     6.18023E-03
 STRESS PERIOD TIME 1.31823E+06  21971.      366.18      15.257     4.17723E-02
         TOTAL TIME 2.49702E+07 4.16170E+05  6936.2      289.01     0.79126    
1
 
 SOLVING FOR HEAD 
                                                   Max.-Head-Change                         Max.-Flux-Residual
  Residual-Control   Outer-Iter.   Inner-Iter.     Column Row Layer    Maximum-Head-Change  Column Row Layer    Maximum-Flux-Residual          L2-NORM 
          0                 1           2             4    8     1       0.5611355988E-01       4    8    1         0.1210199795E+01      0.3307440163E+01
          0                 2           2             4    8     1      -0.5560425788E-02       4    8    1        -0.1210221903E+00      0.3307027286E+00
          0                 3           2             4    8     1       0.4958923063E-03       4    8    1         0.1089197678E-01      0.2975927201E-01
          0                 4           1             4    8     1      -0.3936055577E-04       4    8    1        -0.8724477318E-03      0.2383401809E-02

    ------------------------------------------------
       NWT REQUIRED            4 OUTER ITERATIONS 
       AND A TOTAL OF          7 INNER ITERATIONS.
    ------------------------------------------------

 NO OUTPUT CONTROL FOR STRESS PERIOD   10   TIME STEP   11
 
 SOLVING FOR HEAD 
                                                   Max.-Head-Change                         Max.-Flux-Residual
  Residual-Control   Outer-Iter.   Inner-Iter.     Column Row Layer    Maximum-Head-Change  Column Row Layer    Maximum-Flux-Residual          L2-NORM 
          0                 1           2             4    8     1       0.6063719807E-01       4    8    1         0.1191066228E+01      0.3239753330E+01
          0                 2           2             4    8     1      -0.6008701945E-02       4    8    1        -0.1191092525E+00      0.3239392882E+00
          0                 3           2             4    8     1       0.5358704850E-03       4    8    1         0.1071980823E-01      0.2915108219E-01
          0                 4           1             4    8     1      -0.4253375246E-04       4    8    1        -0.8586570548E-03      0.2334734345E-02

    ------------------------------------------------
       NWT REQUIRED            4 OUTER ITERATIONS 
       AND A TOTAL OF          7 INNER ITERATIONS.
    ------------------------------------------------

 NO OUTPUT CONTROL FOR STRESS PERIOD   10   TIME STEP   12
 
 SOLVING FOR HEAD 
                                                   Max.-Head-Change                         Max.-Flux-Residual
  Residual-Control   Outer-Iter.   Inner-Iter.     Column Row Layer    Maximum-Head-Change  Column Row Layer    Maximum-Flux-Residual          L2-NORM 
          0                 1           2             4    8     1       0.6539295227E-01       4    8    1         0.1170076418E+01      0.3169811305E+01
          0                 2           2             4    8     1      -0.6479985598E-02       4    8    1        -0.1170107601E+00      0.3169505766E+00
          0                 3           2             4    8     1       0.5779004638E-03       4    8    1         0.1053093910E-01      0.2852257179E-01
          0                 4           1             4    8     1      -0.4586980811E-04       4    8    1        -0.8435286816E-03      0.2284443865E-02

    ------------------------------------------------
       NWT REQUIRED            4 OUTER ITERATIONS 
       AND A TOTAL OF          7 INNER ITERATIONS.
    ------------------------------------------------

 NO OUTPUT CONTROL FOR STRESS PERIOD   10   TIME STEP   13
 
 SOLVING FOR HEAD 
                                                   Max.-Head-Change                         Max.-Flux-Residual
  Residual-Control   Outer-Iter.   Inner-Iter.     Column Row Layer    Maximum-Head-Change  Column Row Layer    Maximum-Flux-Residual          L2-NORM 
          0                 1           2             4    8     1       0.7036590071E-01       4    8    1         0.1147132284E+01      0.3097579315E+01
          0                 2           2             4    8     1      -0.6972799711E-02       4    8    1        -0.1147169109E+00      0.3097323017E+00
          0                 3           2             4    8     1       0.6218504998E-03       4    8    1         0.1032448710E-01      0.2787328397E-01
          0                 4           1             4    8     1      -0.4935826501E-04       4    8    1        -0.8269919153E-03      0.2232433030E-02

    ------------------------------------------------
       NWT REQUIRED            4 OUTER ITERATIONS 
       AND A TOTAL OF          7 INNER ITERATIONS.
    ------------------------------------------------

 NO OUTPUT CONTROL FOR STRESS PERIOD   10   TIME STEP   14
 
 SOLVING FOR HEAD 
                                                   Max.-Head-Change                         Max.-Flux-Residual
  Residual-Control   Outer-Iter.   Inner-Iter.     Column Row Layer    Maximum-Head-Change  Column Row Layer    Maximum-Flux-Residual          L2-NORM 
          0                 1           2             4    8     1       0.7553539429E-01       4    8    1         0.1122152943E+01      0.3023117456E+01
          0                 2           2             4    8     1      -0.7485099908E-02       4    8    1        -0.1122196212E+00      0.3022904356E+00
          0                 3           2             4    8     1       0.6675382532E-03       4    8    1         0.1009972468E-01      0.2720387734E-01
          0                 4           1             4    8     1      -0.5298464946E-04       4    8    1        -0.8089884877E-03      0.2178833293E-02

    ------------------------------------------------
       NWT REQUIRED            4 OUTER ITERATIONS 
       AND A TOTAL OF          7 INNER ITERATIONS.
    ------------------------------------------------

 OUTPUT CONTROL FOR STRESS PERIOD   10   TIME STEP   15
    PRINT BUDGET
    PRINT HEAD FOR ALL LAYERS
    SAVE HEAD FOR ALL LAYERS
    SAVE BUDGET

  HEAD DEP BOUNDS   PERIOD   10   STEP    15
 BOUNDARY      1   LAYER   1   ROW    13   COL     1   RATE   -0.274337    
 BOUNDARY      2   LAYER   1   ROW    14   COL     9   RATE    0.296096    



 STREAM LISTING     PERIOD     10   STEP       15

 LAYER ROW COL. STREAM  RCH.  FLOW INTO     FLOW TO   FLOW OUT OF   OVRLND.     DIRECT     STREAM       STREAM     STREAM     STREAM   STREAMBED  STREAMBED
                SEG.NO.  NO.  STRM. RCH.    AQUIFER    STRM. RCH.    RUNOFF     PRECIP       ET          HEAD       DEPTH      WIDTH   CONDCTNC.   GRADIENT

   1    1    1     1     1    2.5000E+01  2.4540E-01   2.4862E+01  1.074E-01  0.000E+00  0.000E+00  1.09423E+03  1.179E+00  1.305E+01  5.872E-02  1.393E+00
   1    2    2     1     2    2.4862E+01  3.8046E-01   2.4649E+01  1.670E-01  0.000E+00  0.000E+00  1.08924E+03  1.177E+00  1.301E+01  9.110E-02  1.392E+00
   1    3    3     1     3    2.4649E+01  3.2489E-01   2.4467E+01  1.432E-01  0.000E+00  0.000E+00  1.08359E+03  1.174E+00  1.297E+01  7.784E-02  1.391E+00
   1    3    4     1     4    2.4467E+01  2.9952E-01   2.4300E+01  1.324E-01  0.000E+00  0.000E+00  1.07858E+03  1.171E+00  1.294E+01  7.181E-02  1.390E+00
   1    4    5     2     1    1.4300E+01  3.0104E-01   1.4072E+01  7.358E-02  0.000E+00  0.000E+00  1.07279E+03  8.595E-01  1.200E+01  7.800E-02  1.287E+00
   1    5    6     2     2    1.4072E+01  2.3113E-01   1.3898E+01  5.660E-02  0.000E+00  0.000E+00  1.06736E+03  8.522E-01  1.200E+01  6.000E-02  1.284E+00
   1    6    6     2     3    1.3898E+01  2.3075E-01   1.3724E+01  5.660E-02  0.000E+00  0.000E+00  1.06264E+03  8.458E-01  1.200E+01  6.000E-02  1.282E+00
   1    7    6     2     4    1.3724E+01  2.3036E-01   1.3550E+01  5.660E-02  0.000E+00  0.000E+00  1.05791E+03  8.394E-01  1.200E+01  6.000E-02  1.280E+00
   1    8    6     2     5    1.3550E+01  2.2998E-01   1.3376E+01  5.660E-02  0.000E+00  0.000E+00  1.05319E+03  8.330E-01  1.200E+01  6.000E-02  1.278E+00
   1    3    5     3     1    1.0000E+01  2.8252E-01   1.0136E+01  4.182E-01  0.000E+00  0.000E+00  1.07555E+03  1.909E+00  9.636E+00  7.227E-02  1.955E+00
   1    3    6     3     2    1.0136E+01  2.4905E-01   1.0305E+01  4.182E-01  0.000E+00  0.000E+00  1.07264E+03  1.727E+00  8.909E+00  6.682E-02  1.864E+00
   1    3    7     3     3    1.0305E+01  1.9718E-01   1.0484E+01  3.764E-01  0.000E+00  0.000E+00  1.06987E+03  1.555E+00  8.218E+00  5.547E-02  1.777E+00
   1    4    8     3     4    1.0484E+01  2.2567E-01   1.0760E+01  5.018E-01  0.000E+00  0.000E+00  1.06682E+03  1.364E+00  7.455E+00  6.709E-02  1.682E+00
   1    5    8     3     5    1.0760E+01  1.5790E-01   1.1020E+01  4.182E-01  0.000E+00  0.000E+00  1.06362E+03  1.164E+00  6.655E+00  4.991E-02  1.582E+00
   1    6    8     3     6    1.1020E+01  5.5980E-02   1.1132E+01  1.673E-01  0.000E+00  0.000E+00  1.06158E+03  1.036E+00  6.145E+00  1.844E-02  1.518E+00
   1    5   10     4     1    1.0000E+01  9.0955E-02   9.9829E+00  7.386E-02  0.000E+00  0.000E+00  1.07837E+03  6.382E-01  1.000E+01  2.500E-02  1.213E+00
   1    5    9     4     2    9.9829E+00  1.8186E-01   9.9488E+00  1.477E-01  0.000E+00  0.000E+00  1.07155E+03  6.372E-01  1.000E+01  5.000E-02  1.212E+00
   1    6    8     4     3    9.9488E+00  1.2726E-01   9.9249E+00  1.034E-01  0.000E+00  0.000E+00  1.06382E+03  6.361E-01  1.000E+01  3.500E-02  1.212E+00
   1    6    8     5     1    2.1057E+01  3.6487E-01   2.0825E+01  1.333E-01  0.000E+00  0.000E+00  1.05887E+03  8.699E-01  2.357E+01  9.428E-02  1.290E+00
   1    7    7     5     2    2.0825E+01  4.5226E-01   2.0539E+01  1.667E-01  0.000E+00  0.000E+00  1.05437E+03  8.661E-01  2.340E+01  1.170E-01  1.289E+00
   1    8    7     5     3    2.0539E+01  3.1407E-01   2.0342E+01  1.167E-01  0.000E+00  0.000E+00  1.05011E+03  8.626E-01  2.323E+01  8.131E-02  1.288E+00
   1    8    6     5     4    2.0342E+01  2.2308E-01   2.0202E+01  8.333E-02  0.000E+00  0.000E+00  1.04711E+03  8.601E-01  2.312E+01  5.779E-02  1.287E+00
   1    9    6     6     1    3.3579E+01  2.6745E-01   3.3584E+01  2.727E-01  0.000E+00  0.000E+00  1.04418E+03  1.458E+00  1.200E+01  6.000E-02  1.486E+00
   1   10    7     6     2    3.3584E+01  2.6746E-01   3.3589E+01  2.727E-01  0.000E+00  0.000E+00  1.03964E+03  1.458E+00  1.200E+01  6.000E-02  1.486E+00
   1   11    7     6     3    3.3589E+01  2.6747E-01   3.3595E+01  2.727E-01  0.000E+00  0.000E+00  1.03509E+03  1.458E+00  1.200E+01  6.000E-02  1.486E+00
   1   12    7     6     4    3.3595E+01  2.6748E-01   3.3600E+01  2.727E-01  0.000E+00  0.000E+00  1.03055E+03  1.458E+00  1.200E+01  6.000E-02  1.486E+00
   1   13    7     6     5    3.3600E+01  4.4156E-02   3.3665E+01  1.091E-01  0.000E+00  0.000E+00  1.02737E+03  1.459E+00  1.200E+01  2.400E-02  6.133E-01
   1   14    9     7     1    1.5000E+02  1.4881E+00   1.4876E+02  2.500E-01  0.000E+00  0.000E+00  1.03987E+03  2.288E+00  5.530E+01  5.593E-01  8.869E-01
   1   13    8     7     2    1.4876E+02  2.3256E+00   1.4671E+02  2.750E-01  0.000E+00  0.000E+00  1.03478E+03  2.279E+00  5.526E+01  6.148E-01  1.261E+00
   1   13    7     7     3    1.4671E+02  2.3224E+00   1.4464E+02  2.500E-01  0.000E+00  0.000E+00  1.02969E+03  2.268E+00  5.521E+01  5.583E-01  1.386E+00
   1   13    6     8     1    1.7830E+02  1.8734E+00   1.7788E+02  1.446E+00  0.000E+00  0.000E+00  1.02488E+03  3.004E+00  4.356E+01  4.439E-01  1.407E+00
   1   13    5     8     2    1.7788E+02  1.3057E+00   1.7802E+02  1.446E+00  0.000E+00  0.000E+00  1.01863E+03  3.003E+00  4.355E+01  4.438E-01  9.808E-01
   1   13    4     8     3    1.7802E+02  4.0818E-01   1.7906E+02  1.446E+00  0.000E+00  0.000E+00  1.01238E+03  3.007E+00  4.360E+01  4.443E-01  3.062E-01
   1   13    3     8     4    1.7906E+02 -9.4616E-01   1.8145E+02  1.446E+00  0.000E+00  0.000E+00  1.00614E+03  3.018E+00  4.376E+01  4.459E+00 -7.073E-02
   1   13    2     8     5    1.8145E+02 -1.0233E+00   1.8392E+02  1.446E+00  0.000E+00  0.000E+00  9.99908E+02  3.033E+00  4.398E+01  4.481E+00 -7.611E-02
   1   13    1     8     6    1.8392E+02 -8.0630E-01   1.8559E+02  8.679E-01  0.000E+00  0.000E+00  9.94921E+02  3.046E+00  4.416E+01  2.700E+00 -9.953E-02



 UBDSV3 SAVING "     NETRECHARGE" ON UNIT 100 AT TIME STEP 15, STRESS PERIOD  10
 UBDSV3 SAVING "    NETDISCHARGE" ON UNIT 101 AT TIME STEP 15, STRESS PERIOD  10
 UBDSV3 SAVING "           GW ET" ON UNIT  61 AT TIME STEP 15, STRESS PERIOD  10
 UBDSV3 SAVING "    UZF RECHARGE" ON UNIT  61 AT TIME STEP 15, STRESS PERIOD  10
 UBDSV3 SAVING " SURFACE LEAKAGE" ON UNIT  61 AT TIME STEP 15, STRESS PERIOD  10
 UBDSV3 SAVING "       HORT+DUNN" ON UNIT  61 AT TIME STEP 15, STRESS PERIOD  10
 UBDSV3 SAVING "  STORAGE CHANGE" ON UNIT  61 AT TIME STEP 15, STRESS PERIOD  10


UNSATURATED ZONE PACKAGE VOLUMETRIC BUDGET FOR  TIME STEP    15 STRESS PERIOD   10
  ------------------------------------------------------------------------------



     CUMULATIVE VOLUMES      L**3       RATES FOR THIS TIME STEP      L**3/T
     ------------------                 ------------------------

           IN:                                      IN:
           ---                                      ---
        INFILTRATION =    76211992.6084          INFILTRATION =           2.9000

          OUT:                                     OUT:
          ----                                     ----
              UZF ET =    23226737.0045                UZF ET =           1.1749
        UZF RECHARGE =     7879692.3965          UZF RECHARGE =       0.0000E+00

            IN - OUT =    45105563.2073              IN - OUT =           1.7251

          STORAGE:                                 STORAGE:
          --------                                 --------
      STORAGE CHANGE =    45105558.6031        STORAGE CHANGE =           1.7251

 PERCENT DISCREPANCY IS DIFFERENCE BETWEEN IN-OUT MINUS CHANGE IN STORAGE
 DIVIDED BY THE AVERAGE OF IN AND OUT TIMES 100

 PERCENT DISCREPANCY =           0.00     PERCENT DISCREPANCY =           0.00






1
              HEAD IN LAYER   1 AT END OF TIME STEP  15 IN STRESS PERIOD   10
  ---------------------------------------------------------------------------

           1       2       3       4       5       6       7       8       9      10
 ...................................................................................
   1  1032.56 1029.36 6999.00 6999.00 6999.00 6999.00 6999.00 6999.00 6999.00 6999.00
   2  1029.64 1025.38 1023.40 6999.00 6999.00 1022.01 1022.29 1022.46 6999.00 6999.00
   3  6999.00 1022.37 1021.10 1020.06 1020.02 1020.61 1021.43 1021.74 6999.00 6999.00
   4  1020.23 1020.27 1019.32 1018.39 1018.21 1018.35 1019.34 1021.03 1021.04 6999.00
   5  1019.33 1018.42 1017.27 1016.72 1016.92 1017.55 1018.25 1019.28 1020.40 1021.30
   6  1018.39 1017.03 1015.51 1015.18 1015.61 1016.68 1017.72 1018.86 1019.90 1021.22
   7  1017.72 1015.87 1014.17 1013.98 1014.61 1015.92 1017.24 1018.22 1019.66 6999.00
   8  6999.00 1014.86 1013.27 1013.24 1014.00 1015.41 1016.66 1018.13 1019.95 6999.00
   9  6999.00 1013.87 1012.76 1012.98 1013.82 1015.24 1016.49 1018.36 1020.80 6999.00
  10  6999.00 1012.75 1012.46 1013.10 1014.09 1015.65 1017.17 1019.29 1021.99 1022.89
  11  6999.00 1010.77 1011.59 1013.18 1014.68 1016.70 1018.76 1021.48 1024.56 6999.00
  12  1001.06 1006.09 1009.58 1012.44 1015.18 1018.29 1021.20 1025.68 1029.35 6999.00
  13   995.22 1000.14 1006.35 1011.46 1015.69 1020.66 1025.53 1031.00 1034.01 6999.00
  14  6999.00 1005.66 1008.43 1012.53 1016.69 1021.17 1026.40 1032.42 1037.21 6999.00
  15  6999.00 6999.00 1012.06 1014.52 1017.65 1020.46 6999.00 6999.00 6999.00 6999.00

 HEAD WILL BE SAVED ON UNIT   58 AT END OF TIME STEP   15, STRESS PERIOD   10
1
  VOLUMETRIC BUDGET FOR ENTIRE MODEL AT END OF TIME STEP   15, STRESS PERIOD  10
  ------------------------------------------------------------------------------

     CUMULATIVE VOLUMES      L**3       RATES FOR THIS TIME STEP      L**3/T
     ------------------                 ------------------------

           IN:                                      IN:
           ---                                      ---
             STORAGE =   439532960.0000               STORAGE =           4.4488
       CONSTANT HEAD =           0.0000         CONSTANT HEAD =           0.0000
               WELLS =           0.0000                 WELLS =           0.0000
     HEAD DEP BOUNDS =     7749595.0000       HEAD DEP BOUNDS =           0.2961
      STREAM LEAKAGE =   428635584.0000        STREAM LEAKAGE =          16.2336
        UZF RECHARGE =     7879697.5000          UZF RECHARGE =           0.0000
               GW ET =           0.0000                 GW ET =           0.0000
     SURFACE LEAKAGE =           0.0000       SURFACE LEAKAGE =           0.0000

            TOTAL IN =   883797824.0000              TOTAL IN =          20.9784

          OUT:                                     OUT:
          ----                                     ----
             STORAGE =   140677808.0000               STORAGE =          11.7810
       CONSTANT HEAD =           0.0000         CONSTANT HEAD =           0.0000
               WELLS =   499320032.0000                 WELLS =           0.0000
     HEAD DEP BOUNDS =     7443570.5000       HEAD DEP BOUNDS =           0.2743
      STREAM LEAKAGE =    87296128.0000        STREAM LEAKAGE =           2.7757
        UZF RECHARGE =           0.0000          UZF RECHARGE =           0.0000
               GW ET =   149072560.0000                 GW ET =           6.1469
     SURFACE LEAKAGE =           0.0000       SURFACE LEAKAGE =           0.0000

           TOTAL OUT =   883810112.0000             TOTAL OUT =          20.9780

            IN - OUT =      -12288.0000              IN - OUT =       3.7766E-04

 PERCENT DISCREPANCY =          -0.00     PERCENT DISCREPANCY =           0.00






         TIME SUMMARY AT END OF TIME STEP   15 IN STRESS PERIOD   10
                    SECONDS     MINUTES      HOURS       DAYS        YEARS
                    -----------------------------------------------------------
   TIME STEP LENGTH 3.14103E+05  5235.0      87.251      3.6354     9.95332E-03
 STRESS PERIOD TIME 2.62800E+06  43800.      730.00      30.417     8.32763E-02
         TOTAL TIME 2.62800E+07 4.38000E+05  7300.0      304.17     0.83276    
1
1
                            STRESS PERIOD NO.   11, LENGTH =   2628000.    
                            -----------------------------------------------

                              NUMBER OF TIME STEPS =    15

                               MULTIPLIER FOR DELT =     1.100

                            INITIAL TIME STEP SIZE =   82713.07    

 WELL NO.  LAYER   ROW   COL   STRESS RATE         
 --------------------------------------------------
      1      1      6      4      -3.000    
      2      1      6      5      -3.000    
      3      1      7      4      -3.000    
      4      1      7      5      -3.000    
      5      1      8      4      -3.000    
      6      1      8      5      -3.000    
      7      1      9      4      -3.000    
      8      1      9      5      -3.000    
      9      1     10      4      -3.000    
     10      1     10      5      -3.000    

     10 WELLS

 REUSING NON-PARAMETER GHB CELLS FROM LAST STRESS PERIOD

      2 GHB CELLS

 REUSING STREAM SEGMENT DATA FROM LAST STRESS PERIOD



            AREAL INFILTRATION RATE
 READING ON UNIT   19 WITH FORMAT: (10F4.0)            

            1           2           3           4           5           6           7           8           9          10
 ........................................................................................................................
   1   1.0000E-09  2.0000E-09   0.000       0.000       0.000       0.000       0.000       0.000       0.000       0.000    
   2   2.0000E-09  1.0000E-09  2.0000E-09   0.000       0.000      8.0000E-09  8.0000E-09  5.0000E-09   0.000       0.000    
   3    0.000      5.0000E-09  1.0000E-09  1.0000E-09  8.0000E-09  8.0000E-09  5.0000E-09  5.0000E-09   0.000       0.000    
   4   8.0000E-09  5.0000E-09  1.0000E-09  1.0000E-09  1.0000E-09  1.0000E-09  1.0000E-09  1.0000E-09  2.0000E-09   0.000    
   5   8.0000E-09  5.0000E-09  1.0000E-09  1.0000E-09  1.0000E-09  1.0000E-09  1.0000E-09  1.0000E-09  1.0000E-09  1.0000E-09
   6   8.0000E-09  5.0000E-09  5.0000E-09  2.0000E-09  2.0000E-09  1.0000E-09  1.0000E-09  1.0000E-09  1.0000E-09  5.0000E-09
   7   8.0000E-09  5.0000E-09  5.0000E-09  2.0000E-09  2.0000E-09  1.0000E-09  1.0000E-09  2.0000E-09  2.0000E-09   0.000    
   8    0.000      5.0000E-09  5.0000E-09  2.0000E-09  2.0000E-09  1.0000E-09  1.0000E-09  2.0000E-09  5.0000E-09   0.000    
   9    0.000      5.0000E-09  5.0000E-09  2.0000E-09  2.0000E-09  1.0000E-09  1.0000E-09  2.0000E-09  5.0000E-09   0.000    
  10    0.000      5.0000E-09  5.0000E-09  2.0000E-09  2.0000E-09  1.0000E-09  1.0000E-09  2.0000E-09  5.0000E-09  8.0000E-09
  11    0.000      1.0000E-09  1.0000E-09  1.0000E-09  1.0000E-09  1.0000E-09  1.0000E-09  2.0000E-09  5.0000E-09   0.000    
  12   1.0000E-09  1.0000E-09  1.0000E-09  1.0000E-09  1.0000E-09  1.0000E-09  1.0000E-09  1.0000E-09  2.0000E-09   0.000    
  13   1.0000E-09  1.0000E-09  2.0000E-09  2.0000E-09  2.0000E-09  2.0000E-09  2.0000E-09  1.0000E-09  1.0000E-09   0.000    
  14    0.000      2.0000E-09  5.0000E-09  5.0000E-09  5.0000E-09  5.0000E-09  5.0000E-09  2.0000E-09  1.0000E-09   0.000    
  15    0.000       0.000      8.0000E-09  8.0000E-09  8.0000E-09  8.0000E-09   0.000       0.000       0.000       0.000    

USING ET RATE FROM PREVIOUS STRESS PERIOD. CURRENT PERIOD IS:      11

 USING ET EXTINCTION DEPTH FROM PREVIOUS STRESS PERIOD. CURRENT PERIOD IS:      11

 USING EXTINCTION WATER CONTENT FROM PREVIOUS STRESS PERIOD. CURRENT PERIOD IS:      11
 
 SOLVING FOR HEAD 
                                                   Max.-Head-Change                         Max.-Flux-Residual
  Residual-Control   Outer-Iter.   Inner-Iter.     Column Row Layer    Maximum-Head-Change  Column Row Layer    Maximum-Flux-Residual          L2-NORM 
          0                 1           2             5   10     1      -0.4134848796E-01       5   10    1        -0.2352513657E+01      0.6867710890E+01
          0                 2           2             5   10     1       0.4097254478E-02       5   10    1         0.2352510489E+00      0.6867280739E+00
          0                 3           2             5   10     1      -0.3654037759E-03       5   10    1        -0.2117260015E-01      0.6180161071E-01
          0                 4           1             5   10     1       0.2900325967E-04       5   10    1         0.1695925677E-02      0.4949989361E-02

    ------------------------------------------------
       NWT REQUIRED            4 OUTER ITERATIONS 
       AND A TOTAL OF          7 INNER ITERATIONS.
    ------------------------------------------------

 NO OUTPUT CONTROL FOR STRESS PERIOD   11   TIME STEP    1
 
 SOLVING FOR HEAD 
                                                   Max.-Head-Change                         Max.-Flux-Residual
  Residual-Control   Outer-Iter.   Inner-Iter.     Column Row Layer    Maximum-Head-Change  Column Row Layer    Maximum-Flux-Residual          L2-NORM 
          0                 1           2             5    6     1      -0.4395345319E-01       5   10    1        -0.2277812560E+01      0.6740474273E+01
          0                 2           2             5    6     1       0.4355381998E-02       5   10    1         0.2277809277E+00      0.6740048358E+00
          0                 3           2             5    6     1      -0.3884242627E-03       5   10    1        -0.2050028926E-01      0.6065654952E-01
          0                 4           1             5    6     1       0.3083046870E-04       5   10    1         0.1642073559E-02      0.4858258939E-02

    ------------------------------------------------
       NWT REQUIRED            4 OUTER ITERATIONS 
       AND A TOTAL OF          7 INNER ITERATIONS.
    ------------------------------------------------

 NO OUTPUT CONTROL FOR STRESS PERIOD   11   TIME STEP    2
 
 SOLVING FOR HEAD 
                                                   Max.-Head-Change                         Max.-Flux-Residual
  Residual-Control   Outer-Iter.   Inner-Iter.     Column Row Layer    Maximum-Head-Change  Column Row Layer    Maximum-Flux-Residual          L2-NORM 
          0                 1           2             5    6     1      -0.4667041638E-01       5    6    1        -0.2200986404E+01      0.6608453599E+01
          0                 2           2             5    6     1       0.4624607359E-02       5    6    1         0.2200982533E+00      0.6608034912E+00
          0                 3           2             5    6     1      -0.4124344850E-03       5    6    1        -0.1980884907E-01      0.5946858360E-01
          0                 4           1             5    6     1       0.3273623630E-04       5    6    1         0.1586689175E-02      0.4763166105E-02

    ------------------------------------------------
       NWT REQUIRED            4 OUTER ITERATIONS 
       AND A TOTAL OF          7 INNER ITERATIONS.
    ------------------------------------------------

 NO OUTPUT CONTROL FOR STRESS PERIOD   11   TIME STEP    3
 
 SOLVING FOR HEAD 
                                                   Max.-Head-Change                         Max.-Flux-Residual
  Residual-Control   Outer-Iter.   Inner-Iter.     Column Row Layer    Maximum-Head-Change  Column Row Layer    Maximum-Flux-Residual          L2-NORM 
          0                 1           2             4   10     1      -0.4951719360E-01       5    6    1        -0.2124585247E+01      0.6472049028E+01
          0                 2           2             4   10     1       0.4906660465E-02       5    6    1         0.2124581060E+00      0.6471639818E+00
          0                 3           2             4   10     1      -0.4375890724E-03       5    6    1        -0.1912123604E-01      0.5824113023E-01
          0                 4           1             4   10     1       0.3473283284E-04       5    6    1         0.1531611361E-02      0.4664840905E-02

    ------------------------------------------------
       NWT REQUIRED            4 OUTER ITERATIONS 
       AND A TOTAL OF          7 INNER ITERATIONS.
    ------------------------------------------------

 NO OUTPUT CONTROL FOR STRESS PERIOD   11   TIME STEP    4
 
 SOLVING FOR HEAD 
                                                   Max.-Head-Change                         Max.-Flux-Residual
  Residual-Control   Outer-Iter.   Inner-Iter.     Column Row Layer    Maximum-Head-Change  Column Row Layer    Maximum-Flux-Residual          L2-NORM 
          0                 1           2             4   10     1      -0.5304099059E-01       4   10    1        -0.2048408812E+01      0.6331746894E+01
          0                 2           2             4   10     1       0.5255888023E-02       4   10    1         0.2048382117E+00      0.6331270380E+00
          0                 3           2             4   10     1      -0.4687962265E-03       4   10    1        -0.1843546751E-01      0.5703154021E-01
          0                 4           1             4   10     1       0.3720984315E-04       4   10    1         0.1476681107E-02      0.4567910726E-02

    ------------------------------------------------
       NWT REQUIRED            4 OUTER ITERATIONS 
       AND A TOTAL OF          7 INNER ITERATIONS.
    ------------------------------------------------

 OUTPUT CONTROL FOR STRESS PERIOD   11   TIME STEP    5
    PRINT BUDGET
    SAVE BUDGET

            WELLS   PERIOD   11   STEP   5
 WELL      1   LAYER   1   ROW     6   COL     4   RATE    -3.00000    
 WELL      2   LAYER   1   ROW     6   COL     5   RATE    -3.00000    
 WELL      3   LAYER   1   ROW     7   COL     4   RATE    -3.00000    
 WELL      4   LAYER   1   ROW     7   COL     5   RATE    -3.00000    
 WELL      5   LAYER   1   ROW     8   COL     4   RATE    -3.00000    
 WELL      6   LAYER   1   ROW     8   COL     5   RATE    -3.00000    
 WELL      7   LAYER   1   ROW     9   COL     4   RATE    -3.00000    
 WELL      8   LAYER   1   ROW     9   COL     5   RATE    -3.00000    
 WELL      9   LAYER   1   ROW    10   COL     4   RATE    -3.00000    
 WELL     10   LAYER   1   ROW    10   COL     5   RATE    -3.00000    

  HEAD DEP BOUNDS   PERIOD   11   STEP     5
 BOUNDARY      1   LAYER   1   ROW    13   COL     1   RATE   -0.273801    
 BOUNDARY      2   LAYER   1   ROW    14   COL     9   RATE    0.296141    



 STREAM LISTING     PERIOD     11   STEP        5

 LAYER ROW COL. STREAM  RCH.  FLOW INTO     FLOW TO   FLOW OUT OF   OVRLND.     DIRECT     STREAM       STREAM     STREAM     STREAM   STREAMBED  STREAMBED
                SEG.NO.  NO.  STRM. RCH.    AQUIFER    STRM. RCH.    RUNOFF     PRECIP       ET          HEAD       DEPTH      WIDTH   CONDCTNC.   GRADIENT

   1    1    1     1     1    2.5000E+01  2.4523E-01   2.4789E+01  3.416E-02  0.000E+00  0.000E+00  1.09423E+03  1.179E+00  1.304E+01  5.869E-02  1.393E+00
   1    2    2     1     2    2.4789E+01  3.7953E-01   2.4463E+01  5.315E-02  0.000E+00  0.000E+00  1.08923E+03  1.175E+00  1.299E+01  9.091E-02  1.392E+00
   1    3    3     1     3    2.4463E+01  3.2343E-01   2.4185E+01  4.555E-02  0.000E+00  0.000E+00  1.08359E+03  1.170E+00  1.293E+01  7.756E-02  1.390E+00
   1    3    4     1     4    2.4185E+01  2.9763E-01   2.3929E+01  4.214E-02  0.000E+00  0.000E+00  1.07857E+03  1.166E+00  1.287E+01  7.144E-02  1.389E+00
   1    4    5     2     1    1.3929E+01  2.9988E-01   1.3629E+01  0.000E+00  0.000E+00  0.000E+00  1.07278E+03  8.447E-01  1.200E+01  7.800E-02  1.282E+00
   1    5    6     2     2    1.3629E+01  2.3009E-01   1.3399E+01  0.000E+00  0.000E+00  0.000E+00  1.06734E+03  8.349E-01  1.200E+01  6.000E-02  1.278E+00
   1    6    6     2     3    1.3399E+01  2.2958E-01   1.3170E+01  0.000E+00  0.000E+00  0.000E+00  1.06262E+03  8.263E-01  1.200E+01  6.000E-02  1.275E+00
   1    7    6     2     4    1.3170E+01  2.2906E-01   1.2941E+01  0.000E+00  0.000E+00  0.000E+00  1.05789E+03  8.177E-01  1.200E+01  6.000E-02  1.273E+00
   1    8    6     2     5    1.2941E+01  2.2855E-01   1.2712E+01  0.000E+00  0.000E+00  0.000E+00  1.05317E+03  8.091E-01  1.200E+01  6.000E-02  1.270E+00
   1    3    5     3     1    1.0000E+01  2.8252E-01   9.9038E+00  1.864E-01  0.000E+00  0.000E+00  1.07555E+03  1.909E+00  9.636E+00  7.227E-02  1.955E+00
   1    3    6     3     2    9.9038E+00  2.4905E-01   9.8412E+00  1.864E-01  0.000E+00  0.000E+00  1.07264E+03  1.727E+00  8.909E+00  6.682E-02  1.864E+00
   1    3    7     3     3    9.8412E+00  1.9718E-01   9.8117E+00  1.677E-01  0.000E+00  0.000E+00  1.06987E+03  1.555E+00  8.218E+00  5.547E-02  1.777E+00
   1    4    8     3     4    9.8117E+00  2.2567E-01   9.8097E+00  2.236E-01  0.000E+00  0.000E+00  1.06682E+03  1.364E+00  7.455E+00  6.709E-02  1.682E+00
   1    5    8     3     5    9.8097E+00  1.5790E-01   9.8381E+00  1.864E-01  0.000E+00  0.000E+00  1.06362E+03  1.164E+00  6.655E+00  4.991E-02  1.582E+00
   1    6    8     3     6    9.8381E+00  5.5980E-02   9.8567E+00  7.455E-02  0.000E+00  0.000E+00  1.06158E+03  1.036E+00  6.145E+00  1.844E-02  1.518E+00
   1    5   10     4     1    1.0000E+01  9.0930E-02   9.9318E+00  2.273E-02  0.000E+00  0.000E+00  1.07836E+03  6.372E-01  1.000E+01  2.500E-02  1.212E+00
   1    5    9     4     2    9.9318E+00  1.8166E-01   9.7956E+00  4.545E-02  0.000E+00  0.000E+00  1.07154E+03  6.333E-01  1.000E+01  5.000E-02  1.211E+00
   1    6    8     4     3    9.7956E+00  1.2701E-01   9.7004E+00  3.182E-02  0.000E+00  0.000E+00  1.06381E+03  6.288E-01  1.000E+01  3.500E-02  1.210E+00
   1    6    8     5     1    1.9557E+01  3.4654E-01   1.9257E+01  4.667E-02  0.000E+00  0.000E+00  1.05885E+03  8.470E-01  2.252E+01  9.008E-02  1.282E+00
   1    7    7     5     2    1.9257E+01  4.2810E-01   1.8887E+01  5.833E-02  0.000E+00  0.000E+00  1.05434E+03  8.419E-01  2.229E+01  1.114E-01  1.281E+00
   1    8    7     5     3    1.8887E+01  2.9634E-01   1.8632E+01  4.083E-02  0.000E+00  0.000E+00  1.05009E+03  8.370E-01  2.207E+01  7.723E-02  1.279E+00
   1    8    6     5     4    1.8632E+01  2.1000E-01   1.8451E+01  2.917E-02  0.000E+00  0.000E+00  1.04708E+03  8.336E-01  2.191E+01  5.478E-02  1.278E+00
   1    9    6     6     1    3.1163E+01  2.6349E-01   3.1002E+01  1.023E-01  0.000E+00  0.000E+00  1.04412E+03  1.391E+00  1.200E+01  6.000E-02  1.464E+00
   1   10    7     6     2    3.1002E+01  2.6323E-01   3.0841E+01  1.023E-01  0.000E+00  0.000E+00  1.03957E+03  1.387E+00  1.200E+01  6.000E-02  1.462E+00
   1   11    7     6     3    3.0841E+01  2.6297E-01   3.0680E+01  1.023E-01  0.000E+00  0.000E+00  1.03502E+03  1.383E+00  1.200E+01  6.000E-02  1.461E+00
   1   12    7     6     4    3.0680E+01  2.6271E-01   3.0520E+01  1.023E-01  0.000E+00  0.000E+00  1.03047E+03  1.378E+00  1.200E+01  6.000E-02  1.459E+00
   1   13    7     6     5    3.0520E+01  4.2358E-02   3.0518E+01  4.091E-02  0.000E+00  0.000E+00  1.02729E+03  1.376E+00  1.200E+01  2.400E-02  5.883E-01
   1   14    9     7     1    1.5000E+02  1.4885E+00   1.4860E+02  8.871E-02  0.000E+00  0.000E+00  1.03987E+03  2.288E+00  5.529E+01  5.593E-01  8.871E-01
   1   13    8     7     2    1.4860E+02  2.3269E+00   1.4637E+02  9.758E-02  0.000E+00  0.000E+00  1.03478E+03  2.278E+00  5.525E+01  6.147E-01  1.262E+00
   1   13    7     7     3    1.4637E+02  2.3249E+00   1.4413E+02  8.871E-02  0.000E+00  0.000E+00  1.02969E+03  2.266E+00  5.520E+01  5.582E-01  1.388E+00
   1   13    6     8     1    1.7465E+02  1.8509E+00   1.7340E+02  6.027E-01  0.000E+00  0.000E+00  1.02485E+03  2.978E+00  4.318E+01  4.401E-01  1.402E+00
   1   13    5     8     2    1.7340E+02  1.2831E+00   1.7272E+02  6.027E-01  0.000E+00  0.000E+00  1.01860E+03  2.972E+00  4.309E+01  4.391E-01  9.739E-01
   1   13    4     8     3    1.7272E+02  3.9123E-01   1.7294E+02  6.027E-01  0.000E+00  0.000E+00  1.01235E+03  2.971E+00  4.307E+01  4.389E-01  2.971E-01
   1   13    3     8     4    1.7294E+02 -1.0472E+00   1.7459E+02  6.027E-01  0.000E+00  0.000E+00  1.00610E+03  2.977E+00  4.316E+01  4.398E+00 -7.936E-02
   1   13    2     8     5    1.7459E+02 -1.1349E+00   1.7632E+02  6.027E-01  0.000E+00  0.000E+00  9.99862E+02  2.987E+00  4.332E+01  4.414E+00 -8.570E-02
   1   13    1     8     6    1.7632E+02 -8.8584E-01   1.7757E+02  3.616E-01  0.000E+00  0.000E+00  9.94872E+02  2.997E+00  4.345E+01  2.657E+00 -1.111E-01



 UBDSV3 SAVING "     NETRECHARGE" ON UNIT 100 AT TIME STEP  5, STRESS PERIOD  11
 UBDSV3 SAVING "    NETDISCHARGE" ON UNIT 101 AT TIME STEP  5, STRESS PERIOD  11
 UBDSV3 SAVING "           GW ET" ON UNIT  61 AT TIME STEP  5, STRESS PERIOD  11
 UBDSV3 SAVING "    UZF RECHARGE" ON UNIT  61 AT TIME STEP  5, STRESS PERIOD  11
 UBDSV3 SAVING " SURFACE LEAKAGE" ON UNIT  61 AT TIME STEP  5, STRESS PERIOD  11
 UBDSV3 SAVING "       HORT+DUNN" ON UNIT  61 AT TIME STEP  5, STRESS PERIOD  11
 UBDSV3 SAVING "  STORAGE CHANGE" ON UNIT  61 AT TIME STEP  5, STRESS PERIOD  11


UNSATURATED ZONE PACKAGE VOLUMETRIC BUDGET FOR  TIME STEP     5 STRESS PERIOD   11
  ------------------------------------------------------------------------------



     CUMULATIVE VOLUMES      L**3       RATES FOR THIS TIME STEP      L**3/T
     ------------------                 ------------------------

           IN:                                      IN:
           ---                                      ---
        INFILTRATION =    77676410.1680          INFILTRATION =           2.9000

          OUT:                                     OUT:
          ----                                     ----
              UZF ET =    23818468.4354                UZF ET =           1.1723
        UZF RECHARGE =     7879692.3965          UZF RECHARGE =       0.0000E+00

            IN - OUT =    45978249.3360              IN - OUT =           1.7277

          STORAGE:                                 STORAGE:
          --------                                 --------
      STORAGE CHANGE =    45978244.7137        STORAGE CHANGE =           1.7277

 PERCENT DISCREPANCY IS DIFFERENCE BETWEEN IN-OUT MINUS CHANGE IN STORAGE
 DIVIDED BY THE AVERAGE OF IN AND OUT TIMES 100

 PERCENT DISCREPANCY =           0.00     PERCENT DISCREPANCY =           0.00






1
  VOLUMETRIC BUDGET FOR ENTIRE MODEL AT END OF TIME STEP    5, STRESS PERIOD  11
  ------------------------------------------------------------------------------

     CUMULATIVE VOLUMES      L**3       RATES FOR THIS TIME STEP      L**3/T
     ------------------                 ------------------------

           IN:                                      IN:
           ---                                      ---
             STORAGE =   452178080.0000               STORAGE =          24.1825
       CONSTANT HEAD =           0.0000         CONSTANT HEAD =           0.0000
               WELLS =           0.0000                 WELLS =           0.0000
     HEAD DEP BOUNDS =     7899129.0000       HEAD DEP BOUNDS =           0.2961
      STREAM LEAKAGE =   436747456.0000        STREAM LEAKAGE =          16.0723
        UZF RECHARGE =     7879697.5000          UZF RECHARGE =           0.0000
               GW ET =           0.0000                 GW ET =           0.0000
     SURFACE LEAKAGE =           0.0000       SURFACE LEAKAGE =           0.0000

            TOTAL IN =   904704384.0000              TOTAL IN =          40.5509

          OUT:                                     OUT:
          ----                                     ----
             STORAGE =   141612288.0000               STORAGE =           1.0631
       CONSTANT HEAD =           0.0000         CONSTANT HEAD =           0.0000
               WELLS =   514469152.0000                 WELLS =          30.0000
     HEAD DEP BOUNDS =     7581934.5000       HEAD DEP BOUNDS =           0.2738
      STREAM LEAKAGE =    88877120.0000        STREAM LEAKAGE =           3.0679
        UZF RECHARGE =           0.0000          UZF RECHARGE =           0.0000
               GW ET =   152176720.0000                 GW ET =           6.1472
     SURFACE LEAKAGE =           0.0000       SURFACE LEAKAGE =           0.0000

           TOTAL OUT =   904717184.0000             TOTAL OUT =          40.5520

            IN - OUT =      -12800.0000              IN - OUT =      -1.1711E-03

 PERCENT DISCREPANCY =          -0.00     PERCENT DISCREPANCY =          -0.00






         TIME SUMMARY AT END OF TIME STEP    5 IN STRESS PERIOD   11
                    SECONDS     MINUTES      HOURS       DAYS        YEARS
                    -----------------------------------------------------------
   TIME STEP LENGTH 1.21100E+05  2018.3      33.639      1.4016     3.83743E-03
 STRESS PERIOD TIME 5.04972E+05  8416.2      140.27      5.8446     1.60016E-02
         TOTAL TIME 2.67850E+07 4.46416E+05  7440.3      310.01     0.84876    
1
 
 SOLVING FOR HEAD 
                                                   Max.-Head-Change                         Max.-Flux-Residual
  Residual-Control   Outer-Iter.   Inner-Iter.     Column Row Layer    Maximum-Head-Change  Column Row Layer    Maximum-Flux-Residual          L2-NORM 
          0                 1           2             4   10     1      -0.5669866712E-01       4   10    1        -0.1994711711E+01      0.6188087869E+01
          0                 2           2             4   10     1       0.5617389532E-02       4   10    1         0.1994681131E+00      0.6181543013E+00
          0                 3           2             4   10     1      -0.5009739742E-03       4   10    1        -0.1795216292E-01      0.5563078513E-01
          0                 4           1             4   10     1       0.3976389191E-04       4   10    1         0.1437968365E-02      0.4455788788E-02

    ------------------------------------------------
       NWT REQUIRED            4 OUTER ITERATIONS 
       AND A TOTAL OF          7 INNER ITERATIONS.
    ------------------------------------------------

 NO OUTPUT CONTROL FOR STRESS PERIOD   11   TIME STEP    6
 
 SOLVING FOR HEAD 
                                                   Max.-Head-Change                         Max.-Flux-Residual
  Residual-Control   Outer-Iter.   Inner-Iter.     Column Row Layer    Maximum-Head-Change  Column Row Layer    Maximum-Flux-Residual          L2-NORM 
          0                 1           2             4    9     1      -0.6145435320E-01       4   10    1        -0.1938455434E+01      0.6042254450E+01
          0                 2           2             4    9     1       0.6089541512E-02       4   10    1         0.1938420713E+00      0.6041897669E+00
          0                 3           2             4    9     1      -0.5430812883E-03       4   10    1        -0.1744582266E-01      0.5437407876E-01
          0                 4           1             4    9     1       0.4310608711E-04       4   10    1         0.1397410472E-02      0.4355110731E-02

    ------------------------------------------------
       NWT REQUIRED            4 OUTER ITERATIONS 
       AND A TOTAL OF          7 INNER ITERATIONS.
    ------------------------------------------------

 NO OUTPUT CONTROL FOR STRESS PERIOD   11   TIME STEP    7
 
 SOLVING FOR HEAD 
                                                   Max.-Head-Change                         Max.-Flux-Residual
  Residual-Control   Outer-Iter.   Inner-Iter.     Column Row Layer    Maximum-Head-Change  Column Row Layer    Maximum-Flux-Residual          L2-NORM 
          0                 1           2             4    9     1      -0.6692714374E-01       4    9    1        -0.1909813568E+01      0.5894397166E+01
          0                 2           2             4    9     1       0.6631829700E-02       4    9    1         0.1909798969E+00      0.5894057865E+00
          0                 3           2             4    9     1      -0.5914441029E-03       4    9    1        -0.1718820720E-01      0.5304380599E-01
          0                 4           1             4    9     1       0.4694479615E-04       4    9    1         0.1376775630E-02      0.4248595937E-02

    ------------------------------------------------
       NWT REQUIRED            4 OUTER ITERATIONS 
       AND A TOTAL OF          7 INNER ITERATIONS.
    ------------------------------------------------

 NO OUTPUT CONTROL FOR STRESS PERIOD   11   TIME STEP    8
 
 SOLVING FOR HEAD 
                                                   Max.-Head-Change                         Max.-Flux-Residual
  Residual-Control   Outer-Iter.   Inner-Iter.     Column Row Layer    Maximum-Head-Change  Column Row Layer    Maximum-Flux-Residual          L2-NORM 
          0                 1           2             4    9     1      -0.7274679935E-01       4    9    1        -0.1890811859E+01      0.5745151348E+01
          0                 2           2             4    9     1       0.7208482923E-02       4    9    1         0.1890791441E+00      0.5744828168E+00
          0                 3           2             4    9     1      -0.6428717412E-03       4    9    1        -0.1701714513E-01      0.5170101557E-01
          0                 4           1             4    9     1       0.5102676969E-04       4    9    1         0.1363073514E-02      0.4141063932E-02

    ------------------------------------------------
       NWT REQUIRED            4 OUTER ITERATIONS 
       AND A TOTAL OF          7 INNER ITERATIONS.
    ------------------------------------------------

 NO OUTPUT CONTROL FOR STRESS PERIOD   11   TIME STEP    9
 
 SOLVING FOR HEAD 
                                                   Max.-Head-Change                         Max.-Flux-Residual
  Residual-Control   Outer-Iter.   Inner-Iter.     Column Row Layer    Maximum-Head-Change  Column Row Layer    Maximum-Flux-Residual          L2-NORM 
          0                 1           2             4    9     1      -0.7890288745E-01       4    9    1        -0.1868386728E+01      0.5595135942E+01
          0                 2           2             4    9     1       0.7818465716E-02       4    9    1         0.1868359244E+00      0.5594829142E+00
          0                 3           2             4    9     1      -0.6972718746E-03       4    9    1        -0.1681526227E-01      0.5035126782E-01
          0                 4           1             4    9     1       0.5534467912E-04       4    9    1         0.1346902637E-02      0.4032938573E-02

    ------------------------------------------------
       NWT REQUIRED            4 OUTER ITERATIONS 
       AND A TOTAL OF          7 INNER ITERATIONS.
    ------------------------------------------------

 OUTPUT CONTROL FOR STRESS PERIOD   11   TIME STEP   10
    PRINT BUDGET
    SAVE BUDGET

            WELLS   PERIOD   11   STEP  10
 WELL      1   LAYER   1   ROW     6   COL     4   RATE    -3.00000    
 WELL      2   LAYER   1   ROW     6   COL     5   RATE    -3.00000    
 WELL      3   LAYER   1   ROW     7   COL     4   RATE    -3.00000    
 WELL      4   LAYER   1   ROW     7   COL     5   RATE    -3.00000    
 WELL      5   LAYER   1   ROW     8   COL     4   RATE    -3.00000    
 WELL      6   LAYER   1   ROW     8   COL     5   RATE    -3.00000    
 WELL      7   LAYER   1   ROW     9   COL     4   RATE    -3.00000    
 WELL      8   LAYER   1   ROW     9   COL     5   RATE    -3.00000    
 WELL      9   LAYER   1   ROW    10   COL     4   RATE    -3.00000    
 WELL     10   LAYER   1   ROW    10   COL     5   RATE    -3.00000    

  HEAD DEP BOUNDS   PERIOD   11   STEP    10
 BOUNDARY      1   LAYER   1   ROW    13   COL     1   RATE   -0.273181    
 BOUNDARY      2   LAYER   1   ROW    14   COL     9   RATE    0.296214    



 STREAM LISTING     PERIOD     11   STEP       10

 LAYER ROW COL. STREAM  RCH.  FLOW INTO     FLOW TO   FLOW OUT OF   OVRLND.     DIRECT     STREAM       STREAM     STREAM     STREAM   STREAMBED  STREAMBED
                SEG.NO.  NO.  STRM. RCH.    AQUIFER    STRM. RCH.    RUNOFF     PRECIP       ET          HEAD       DEPTH      WIDTH   CONDCTNC.   GRADIENT

   1    1    1     1     1    2.5000E+01  2.4523E-01   2.4789E+01  3.416E-02  0.000E+00  0.000E+00  1.09423E+03  1.179E+00  1.304E+01  5.869E-02  1.393E+00
   1    2    2     1     2    2.4789E+01  3.7953E-01   2.4463E+01  5.315E-02  0.000E+00  0.000E+00  1.08923E+03  1.175E+00  1.299E+01  9.091E-02  1.392E+00
   1    3    3     1     3    2.4463E+01  3.2343E-01   2.4185E+01  4.555E-02  0.000E+00  0.000E+00  1.08359E+03  1.170E+00  1.293E+01  7.756E-02  1.390E+00
   1    3    4     1     4    2.4185E+01  2.9763E-01   2.3929E+01  4.214E-02  0.000E+00  0.000E+00  1.07857E+03  1.166E+00  1.287E+01  7.144E-02  1.389E+00
   1    4    5     2     1    1.3929E+01  2.9988E-01   1.3629E+01  0.000E+00  0.000E+00  0.000E+00  1.07278E+03  8.447E-01  1.200E+01  7.800E-02  1.282E+00
   1    5    6     2     2    1.3629E+01  2.3009E-01   1.3399E+01  0.000E+00  0.000E+00  0.000E+00  1.06734E+03  8.349E-01  1.200E+01  6.000E-02  1.278E+00
   1    6    6     2     3    1.3399E+01  2.2958E-01   1.3170E+01  0.000E+00  0.000E+00  0.000E+00  1.06262E+03  8.263E-01  1.200E+01  6.000E-02  1.275E+00
   1    7    6     2     4    1.3170E+01  2.2906E-01   1.2941E+01  0.000E+00  0.000E+00  0.000E+00  1.05789E+03  8.177E-01  1.200E+01  6.000E-02  1.273E+00
   1    8    6     2     5    1.2941E+01  2.2855E-01   1.2712E+01  0.000E+00  0.000E+00  0.000E+00  1.05317E+03  8.091E-01  1.200E+01  6.000E-02  1.270E+00
   1    3    5     3     1    1.0000E+01  2.8252E-01   9.9038E+00  1.864E-01  0.000E+00  0.000E+00  1.07555E+03  1.909E+00  9.636E+00  7.227E-02  1.955E+00
   1    3    6     3     2    9.9038E+00  2.4905E-01   9.8412E+00  1.864E-01  0.000E+00  0.000E+00  1.07264E+03  1.727E+00  8.909E+00  6.682E-02  1.864E+00
   1    3    7     3     3    9.8412E+00  1.9718E-01   9.8117E+00  1.677E-01  0.000E+00  0.000E+00  1.06987E+03  1.555E+00  8.218E+00  5.547E-02  1.777E+00
   1    4    8     3     4    9.8117E+00  2.2567E-01   9.8097E+00  2.236E-01  0.000E+00  0.000E+00  1.06682E+03  1.364E+00  7.455E+00  6.709E-02  1.682E+00
   1    5    8     3     5    9.8097E+00  1.5790E-01   9.8381E+00  1.864E-01  0.000E+00  0.000E+00  1.06362E+03  1.164E+00  6.655E+00  4.991E-02  1.582E+00
   1    6    8     3     6    9.8381E+00  5.5980E-02   9.8567E+00  7.455E-02  0.000E+00  0.000E+00  1.06158E+03  1.036E+00  6.145E+00  1.844E-02  1.518E+00
   1    5   10     4     1    1.0000E+01  9.0930E-02   9.9318E+00  2.273E-02  0.000E+00  0.000E+00  1.07836E+03  6.372E-01  1.000E+01  2.500E-02  1.212E+00
   1    5    9     4     2    9.9318E+00  1.8166E-01   9.7956E+00  4.545E-02  0.000E+00  0.000E+00  1.07154E+03  6.333E-01  1.000E+01  5.000E-02  1.211E+00
   1    6    8     4     3    9.7956E+00  1.2701E-01   9.7004E+00  3.182E-02  0.000E+00  0.000E+00  1.06381E+03  6.288E-01  1.000E+01  3.500E-02  1.210E+00
   1    6    8     5     1    1.9557E+01  3.4654E-01   1.9257E+01  4.667E-02  0.000E+00  0.000E+00  1.05885E+03  8.470E-01  2.252E+01  9.008E-02  1.282E+00
   1    7    7     5     2    1.9257E+01  4.2810E-01   1.8887E+01  5.833E-02  0.000E+00  0.000E+00  1.05434E+03  8.419E-01  2.229E+01  1.114E-01  1.281E+00
   1    8    7     5     3    1.8887E+01  2.9634E-01   1.8632E+01  4.083E-02  0.000E+00  0.000E+00  1.05009E+03  8.370E-01  2.207E+01  7.723E-02  1.279E+00
   1    8    6     5     4    1.8632E+01  2.1000E-01   1.8451E+01  2.917E-02  0.000E+00  0.000E+00  1.04708E+03  8.336E-01  2.191E+01  5.478E-02  1.278E+00
   1    9    6     6     1    3.1163E+01  2.6349E-01   3.1002E+01  1.023E-01  0.000E+00  0.000E+00  1.04412E+03  1.391E+00  1.200E+01  6.000E-02  1.464E+00
   1   10    7     6     2    3.1002E+01  2.6323E-01   3.0841E+01  1.023E-01  0.000E+00  0.000E+00  1.03957E+03  1.387E+00  1.200E+01  6.000E-02  1.462E+00
   1   11    7     6     3    3.0841E+01  2.6297E-01   3.0680E+01  1.023E-01  0.000E+00  0.000E+00  1.03502E+03  1.383E+00  1.200E+01  6.000E-02  1.461E+00
   1   12    7     6     4    3.0680E+01  2.6271E-01   3.0520E+01  1.023E-01  0.000E+00  0.000E+00  1.03047E+03  1.378E+00  1.200E+01  6.000E-02  1.459E+00
   1   13    7     6     5    3.0520E+01  4.2642E-02   3.0518E+01  4.091E-02  0.000E+00  0.000E+00  1.02729E+03  1.376E+00  1.200E+01  2.400E-02  5.922E-01
   1   14    9     7     1    1.5000E+02  1.4896E+00   1.4860E+02  8.871E-02  0.000E+00  0.000E+00  1.03987E+03  2.288E+00  5.529E+01  5.593E-01  8.878E-01
   1   13    8     7     2    1.4860E+02  2.3308E+00   1.4637E+02  9.758E-02  0.000E+00  0.000E+00  1.03478E+03  2.278E+00  5.525E+01  6.147E-01  1.264E+00
   1   13    7     7     3    1.4637E+02  2.3315E+00   1.4412E+02  8.871E-02  0.000E+00  0.000E+00  1.02969E+03  2.266E+00  5.520E+01  5.582E-01  1.392E+00
   1   13    6     8     1    1.7464E+02  1.8580E+00   1.7339E+02  6.027E-01  0.000E+00  0.000E+00  1.02485E+03  2.978E+00  4.318E+01  4.401E-01  1.407E+00
   1   13    5     8     2    1.7339E+02  1.2895E+00   1.7270E+02  6.027E-01  0.000E+00  0.000E+00  1.01860E+03  2.972E+00  4.309E+01  4.391E-01  9.788E-01
   1   13    4     8     3    1.7270E+02  3.9691E-01   1.7290E+02  6.027E-01  0.000E+00  0.000E+00  1.01235E+03  2.970E+00  4.307E+01  4.389E-01  3.014E-01
   1   13    3     8     4    1.7290E+02 -9.8791E-01   1.7450E+02  6.027E-01  0.000E+00  0.000E+00  1.00610E+03  2.976E+00  4.315E+01  4.398E+00 -7.488E-02
   1   13    2     8     5    1.7450E+02 -1.0692E+00   1.7617E+02  6.027E-01  0.000E+00  0.000E+00  9.99862E+02  2.987E+00  4.331E+01  4.413E+00 -8.076E-02
   1   13    1     8     6    1.7617E+02 -8.4514E-01   1.7737E+02  3.616E-01  0.000E+00  0.000E+00  9.94871E+02  2.996E+00  4.344E+01  2.656E+00 -1.061E-01



 UBDSV3 SAVING "     NETRECHARGE" ON UNIT 100 AT TIME STEP 10, STRESS PERIOD  11
 UBDSV3 SAVING "    NETDISCHARGE" ON UNIT 101 AT TIME STEP 10, STRESS PERIOD  11
 UBDSV3 SAVING "           GW ET" ON UNIT  61 AT TIME STEP 10, STRESS PERIOD  11
 UBDSV3 SAVING "    UZF RECHARGE" ON UNIT  61 AT TIME STEP 10, STRESS PERIOD  11
 UBDSV3 SAVING " SURFACE LEAKAGE" ON UNIT  61 AT TIME STEP 10, STRESS PERIOD  11
 UBDSV3 SAVING "       HORT+DUNN" ON UNIT  61 AT TIME STEP 10, STRESS PERIOD  11
 UBDSV3 SAVING "  STORAGE CHANGE" ON UNIT  61 AT TIME STEP 10, STRESS PERIOD  11


UNSATURATED ZONE PACKAGE VOLUMETRIC BUDGET FOR  TIME STEP    10 STRESS PERIOD   11
  ------------------------------------------------------------------------------



     CUMULATIVE VOLUMES      L**3       RATES FOR THIS TIME STEP      L**3/T
     ------------------                 ------------------------

           IN:                                      IN:
           ---                                      ---
        INFILTRATION =    80034869.4355          INFILTRATION =           2.9000

          OUT:                                     OUT:
          ----                                     ----
              UZF ET =    24770072.7619                UZF ET =           1.1603
        UZF RECHARGE =     7879692.3965          UZF RECHARGE =       0.0000E+00

            IN - OUT =    47385104.2772              IN - OUT =           1.7397

          STORAGE:                                 STORAGE:
          --------                                 --------
      STORAGE CHANGE =    47385099.6337        STORAGE CHANGE =           1.7397

 PERCENT DISCREPANCY IS DIFFERENCE BETWEEN IN-OUT MINUS CHANGE IN STORAGE
 DIVIDED BY THE AVERAGE OF IN AND OUT TIMES 100

 PERCENT DISCREPANCY =           0.00     PERCENT DISCREPANCY =           0.00






1
  VOLUMETRIC BUDGET FOR ENTIRE MODEL AT END OF TIME STEP   10, STRESS PERIOD  11
  ------------------------------------------------------------------------------

     CUMULATIVE VOLUMES      L**3       RATES FOR THIS TIME STEP      L**3/T
     ------------------                 ------------------------

           IN:                                      IN:
           ---                                      ---
             STORAGE =   471121152.0000               STORAGE =          23.0237
       CONSTANT HEAD =           0.0000         CONSTANT HEAD =           0.0000
               WELLS =           0.0000                 WELLS =           0.0000
     HEAD DEP BOUNDS =     8140004.5000       HEAD DEP BOUNDS =           0.2962
      STREAM LEAKAGE =   449833792.0000        STREAM LEAKAGE =          16.1033
        UZF RECHARGE =     7879697.5000          UZF RECHARGE =           0.0000
               GW ET =           0.0000                 GW ET =           0.0000
     SURFACE LEAKAGE =           0.0000       SURFACE LEAKAGE =           0.0000

            TOTAL IN =   936974592.0000              TOTAL IN =          39.4231

          OUT:                                     OUT:
          ----                                     ----
             STORAGE =   141856192.0000               STORAGE =           0.1007
       CONSTANT HEAD =           0.0000         CONSTANT HEAD =           0.0000
               WELLS =   538867008.0000                 WELLS =          30.0000
     HEAD DEP BOUNDS =     7804287.0000       HEAD DEP BOUNDS =           0.2732
      STREAM LEAKAGE =    91284816.0000        STREAM LEAKAGE =           2.9022
        UZF RECHARGE =           0.0000          UZF RECHARGE =           0.0000
               GW ET =   157176128.0000                 GW ET =           6.1482
     SURFACE LEAKAGE =           0.0000       SURFACE LEAKAGE =           0.0000

           TOTAL OUT =   936988416.0000             TOTAL OUT =          39.4243

            IN - OUT =      -13824.0000              IN - OUT =      -1.1559E-03

 PERCENT DISCREPANCY =          -0.00     PERCENT DISCREPANCY =          -0.00






         TIME SUMMARY AT END OF TIME STEP   10 IN STRESS PERIOD   11
                    SECONDS     MINUTES      HOURS       DAYS        YEARS
                    -----------------------------------------------------------
   TIME STEP LENGTH 1.95033E+05  3250.6      54.176      2.2573     6.18023E-03
 STRESS PERIOD TIME 1.31823E+06  21971.      366.18      15.257     4.17723E-02
         TOTAL TIME 2.75982E+07 4.59970E+05  7666.2      319.42     0.87454    
1
 
 SOLVING FOR HEAD 
                                                   Max.-Head-Change                         Max.-Flux-Residual
  Residual-Control   Outer-Iter.   Inner-Iter.     Column Row Layer    Maximum-Head-Change  Column Row Layer    Maximum-Flux-Residual          L2-NORM 
          0                 1           2             4    9     1      -0.8537815408E-01       4    9    1        -0.1842272961E+01      0.5445007706E+01
          0                 2           2             4    9     1       0.8460066412E-02       4    9    1         0.1842237073E+00      0.5444714609E+00
          0                 3           2             4    9     1      -0.7544918710E-03       4    9    1        -0.1658017095E-01      0.4900046837E-01
          0                 4           1             4    9     1       0.5988640876E-04       4    9    1         0.1328071752E-02      0.3924782337E-02

    ------------------------------------------------
       NWT REQUIRED            4 OUTER ITERATIONS 
       AND A TOTAL OF          7 INNER ITERATIONS.
    ------------------------------------------------

 NO OUTPUT CONTROL FOR STRESS PERIOD   11   TIME STEP   11
 
 SOLVING FOR HEAD 
                                                   Max.-Head-Change                         Max.-Flux-Residual
  Residual-Control   Outer-Iter.   Inner-Iter.     Column Row Layer    Maximum-Head-Change  Column Row Layer    Maximum-Flux-Residual          L2-NORM 
          0                 1           2             4    9     1      -0.9214725688E-01       4    9    1        -0.1812234134E+01      0.5295343828E+01
          0                 2           2             4    9     1       0.9130058317E-02       4    9    1         0.1812188462E+00      0.5292629439E+00
          0                 3           2             4    9     1      -0.8142439538E-03       4    9    1        -0.1630974330E-01      0.4763201821E-01
          0                 4           1             4    9     1       0.6462911789E-04       4    9    1         0.1306410411E-02      0.3815209459E-02

    ------------------------------------------------
       NWT REQUIRED            4 OUTER ITERATIONS 
       AND A TOTAL OF          7 INNER ITERATIONS.
    ------------------------------------------------

 NO OUTPUT CONTROL FOR STRESS PERIOD   11   TIME STEP   12
 
 SOLVING FOR HEAD 
                                                   Max.-Head-Change                         Max.-Flux-Residual
  Residual-Control   Outer-Iter.   Inner-Iter.     Column Row Layer    Maximum-Head-Change  Column Row Layer    Maximum-Flux-Residual          L2-NORM 
          0                 1           2             4    9     1      -0.9918498772E-01       4    9    1        -0.1778121398E+01      0.5146894228E+01
          0                 2           2             4    9     1       0.9828087489E-02       4    9    1         0.1778064785E+00      0.5146634899E+00
          0                 3           2             4    9     1      -0.8764966188E-03       4    9    1        -0.1600264062E-01      0.4631825399E-01
          0                 4           1             4    9     1       0.6957030529E-04       4    9    1         0.1281811401E-02      0.3709959217E-02

    ------------------------------------------------
       NWT REQUIRED            4 OUTER ITERATIONS 
       AND A TOTAL OF          7 INNER ITERATIONS.
    ------------------------------------------------

 NO OUTPUT CONTROL FOR STRESS PERIOD   11   TIME STEP   13
 
 SOLVING FOR HEAD 
                                                   Max.-Head-Change                         Max.-Flux-Residual
  Residual-Control   Outer-Iter.   Inner-Iter.     Column Row Layer    Maximum-Head-Change  Column Row Layer    Maximum-Flux-Residual          L2-NORM 
          0                 1           2             4    8     1      -0.1069606550E+00       4    9    1        -0.1739916769E+01      0.5000697038E+01
          0                 2           2             4    8     1       0.1059861657E-01       4    9    1         0.1739847847E+00      0.5000443453E+00
          0                 3           2             4    8     1      -0.9452140829E-03       4    9    1        -0.1565870024E-01      0.4500275810E-01
          0                 4           1             4    8     1       0.7502462920E-04       4    9    1         0.1254261667E-02      0.3604653491E-02

    ------------------------------------------------
       NWT REQUIRED            4 OUTER ITERATIONS 
       AND A TOTAL OF          7 INNER ITERATIONS.
    ------------------------------------------------

 NO OUTPUT CONTROL FOR STRESS PERIOD   11   TIME STEP   14
 
 SOLVING FOR HEAD 
                                                   Max.-Head-Change                         Max.-Flux-Residual
  Residual-Control   Outer-Iter.   Inner-Iter.     Column Row Layer    Maximum-Head-Change  Column Row Layer    Maximum-Flux-Residual          L2-NORM 
          0                 1           2             4    8     1      -0.1152155870E+00       4    8    1        -0.1705744997E+01      0.4856361043E+01
          0                 2           2             4    8     1       0.1141651357E-01       4    8    1         0.1705689788E+00      0.4856109885E+00
          0                 3           2             4    8     1      -0.1018157158E-02       4    8    1        -0.1535126420E-01      0.4370394162E-01
          0                 4           1             4    8     1       0.8081434315E-04       4    8    1         0.1229636139E-02      0.3500602999E-02

    ------------------------------------------------
       NWT REQUIRED            4 OUTER ITERATIONS 
       AND A TOTAL OF          7 INNER ITERATIONS.
    ------------------------------------------------

 OUTPUT CONTROL FOR STRESS PERIOD   11   TIME STEP   15
    PRINT BUDGET
    PRINT HEAD FOR ALL LAYERS
    SAVE HEAD FOR ALL LAYERS
    SAVE BUDGET

            WELLS   PERIOD   11   STEP  15
 WELL      1   LAYER   1   ROW     6   COL     4   RATE    -3.00000    
 WELL      2   LAYER   1   ROW     6   COL     5   RATE    -3.00000    
 WELL      3   LAYER   1   ROW     7   COL     4   RATE    -3.00000    
 WELL      4   LAYER   1   ROW     7   COL     5   RATE    -3.00000    
 WELL      5   LAYER   1   ROW     8   COL     4   RATE    -3.00000    
 WELL      6   LAYER   1   ROW     8   COL     5   RATE    -3.00000    
 WELL      7   LAYER   1   ROW     9   COL     4   RATE    -3.00000    
 WELL      8   LAYER   1   ROW     9   COL     5   RATE    -3.00000    
 WELL      9   LAYER   1   ROW    10   COL     4   RATE    -3.00000    
 WELL     10   LAYER   1   ROW    10   COL     5   RATE    -3.00000    

  HEAD DEP BOUNDS   PERIOD   11   STEP    15
 BOUNDARY      1   LAYER   1   ROW    13   COL     1   RATE   -0.272595    
 BOUNDARY      2   LAYER   1   ROW    14   COL     9   RATE    0.296332    



 STREAM LISTING     PERIOD     11   STEP       15

 LAYER ROW COL. STREAM  RCH.  FLOW INTO     FLOW TO   FLOW OUT OF   OVRLND.     DIRECT     STREAM       STREAM     STREAM     STREAM   STREAMBED  STREAMBED
                SEG.NO.  NO.  STRM. RCH.    AQUIFER    STRM. RCH.    RUNOFF     PRECIP       ET          HEAD       DEPTH      WIDTH   CONDCTNC.   GRADIENT

   1    1    1     1     1    2.5000E+01  2.4523E-01   2.4789E+01  3.416E-02  0.000E+00  0.000E+00  1.09423E+03  1.179E+00  1.304E+01  5.869E-02  1.393E+00
   1    2    2     1     2    2.4789E+01  3.7953E-01   2.4463E+01  5.315E-02  0.000E+00  0.000E+00  1.08923E+03  1.175E+00  1.299E+01  9.091E-02  1.392E+00
   1    3    3     1     3    2.4463E+01  3.2343E-01   2.4185E+01  4.555E-02  0.000E+00  0.000E+00  1.08359E+03  1.170E+00  1.293E+01  7.756E-02  1.390E+00
   1    3    4     1     4    2.4185E+01  2.9763E-01   2.3929E+01  4.214E-02  0.000E+00  0.000E+00  1.07857E+03  1.166E+00  1.287E+01  7.144E-02  1.389E+00
   1    4    5     2     1    1.3929E+01  2.9988E-01   1.3629E+01  0.000E+00  0.000E+00  0.000E+00  1.07278E+03  8.447E-01  1.200E+01  7.800E-02  1.282E+00
   1    5    6     2     2    1.3629E+01  2.3009E-01   1.3399E+01  0.000E+00  0.000E+00  0.000E+00  1.06734E+03  8.349E-01  1.200E+01  6.000E-02  1.278E+00
   1    6    6     2     3    1.3399E+01  2.2958E-01   1.3170E+01  0.000E+00  0.000E+00  0.000E+00  1.06262E+03  8.263E-01  1.200E+01  6.000E-02  1.275E+00
   1    7    6     2     4    1.3170E+01  2.2906E-01   1.2941E+01  0.000E+00  0.000E+00  0.000E+00  1.05789E+03  8.177E-01  1.200E+01  6.000E-02  1.273E+00
   1    8    6     2     5    1.2941E+01  2.2855E-01   1.2712E+01  0.000E+00  0.000E+00  0.000E+00  1.05317E+03  8.091E-01  1.200E+01  6.000E-02  1.270E+00
   1    3    5     3     1    1.0000E+01  2.8252E-01   9.9038E+00  1.864E-01  0.000E+00  0.000E+00  1.07555E+03  1.909E+00  9.636E+00  7.227E-02  1.955E+00
   1    3    6     3     2    9.9038E+00  2.4905E-01   9.8412E+00  1.864E-01  0.000E+00  0.000E+00  1.07264E+03  1.727E+00  8.909E+00  6.682E-02  1.864E+00
   1    3    7     3     3    9.8412E+00  1.9718E-01   9.8117E+00  1.677E-01  0.000E+00  0.000E+00  1.06987E+03  1.555E+00  8.218E+00  5.547E-02  1.777E+00
   1    4    8     3     4    9.8117E+00  2.2567E-01   9.8097E+00  2.236E-01  0.000E+00  0.000E+00  1.06682E+03  1.364E+00  7.455E+00  6.709E-02  1.682E+00
   1    5    8     3     5    9.8097E+00  1.5790E-01   9.8381E+00  1.864E-01  0.000E+00  0.000E+00  1.06362E+03  1.164E+00  6.655E+00  4.991E-02  1.582E+00
   1    6    8     3     6    9.8381E+00  5.5980E-02   9.8567E+00  7.455E-02  0.000E+00  0.000E+00  1.06158E+03  1.036E+00  6.145E+00  1.844E-02  1.518E+00
   1    5   10     4     1    1.0000E+01  9.0930E-02   9.9318E+00  2.273E-02  0.000E+00  0.000E+00  1.07836E+03  6.372E-01  1.000E+01  2.500E-02  1.212E+00
   1    5    9     4     2    9.9318E+00  1.8166E-01   9.7956E+00  4.545E-02  0.000E+00  0.000E+00  1.07154E+03  6.333E-01  1.000E+01  5.000E-02  1.211E+00
   1    6    8     4     3    9.7956E+00  1.2701E-01   9.7004E+00  3.182E-02  0.000E+00  0.000E+00  1.06381E+03  6.288E-01  1.000E+01  3.500E-02  1.210E+00
   1    6    8     5     1    1.9557E+01  3.4654E-01   1.9257E+01  4.667E-02  0.000E+00  0.000E+00  1.05885E+03  8.470E-01  2.252E+01  9.008E-02  1.282E+00
   1    7    7     5     2    1.9257E+01  4.2810E-01   1.8887E+01  5.833E-02  0.000E+00  0.000E+00  1.05434E+03  8.419E-01  2.229E+01  1.114E-01  1.281E+00
   1    8    7     5     3    1.8887E+01  2.9634E-01   1.8632E+01  4.083E-02  0.000E+00  0.000E+00  1.05009E+03  8.370E-01  2.207E+01  7.723E-02  1.279E+00
   1    8    6     5     4    1.8632E+01  2.1000E-01   1.8451E+01  2.917E-02  0.000E+00  0.000E+00  1.04708E+03  8.336E-01  2.191E+01  5.478E-02  1.278E+00
   1    9    6     6     1    3.1163E+01  2.6349E-01   3.1002E+01  1.023E-01  0.000E+00  0.000E+00  1.04412E+03  1.391E+00  1.200E+01  6.000E-02  1.464E+00
   1   10    7     6     2    3.1002E+01  2.6323E-01   3.0841E+01  1.023E-01  0.000E+00  0.000E+00  1.03957E+03  1.387E+00  1.200E+01  6.000E-02  1.462E+00
   1   11    7     6     3    3.0841E+01  2.6297E-01   3.0680E+01  1.023E-01  0.000E+00  0.000E+00  1.03502E+03  1.383E+00  1.200E+01  6.000E-02  1.461E+00
   1   12    7     6     4    3.0680E+01  2.6271E-01   3.0520E+01  1.023E-01  0.000E+00  0.000E+00  1.03047E+03  1.378E+00  1.200E+01  6.000E-02  1.459E+00
   1   13    7     6     5    3.0520E+01  4.3057E-02   3.0518E+01  4.091E-02  0.000E+00  0.000E+00  1.02729E+03  1.376E+00  1.200E+01  2.400E-02  5.980E-01
   1   14    9     7     1    1.5000E+02  1.4913E+00   1.4860E+02  8.871E-02  0.000E+00  0.000E+00  1.03987E+03  2.288E+00  5.529E+01  5.593E-01  8.888E-01
   1   13    8     7     2    1.4860E+02  2.3369E+00   1.4636E+02  9.758E-02  0.000E+00  0.000E+00  1.03478E+03  2.278E+00  5.525E+01  6.147E-01  1.267E+00
   1   13    7     7     3    1.4636E+02  2.3411E+00   1.4411E+02  8.871E-02  0.000E+00  0.000E+00  1.02969E+03  2.266E+00  5.520E+01  5.582E-01  1.398E+00
   1   13    6     8     1    1.7462E+02  1.8676E+00   1.7336E+02  6.027E-01  0.000E+00  0.000E+00  1.02485E+03  2.978E+00  4.318E+01  4.400E-01  1.415E+00
   1   13    5     8     2    1.7336E+02  1.2984E+00   1.7266E+02  6.027E-01  0.000E+00  0.000E+00  1.01860E+03  2.972E+00  4.309E+01  4.391E-01  9.857E-01
   1   13    4     8     3    1.7266E+02  4.0472E-01   1.7286E+02  6.027E-01  0.000E+00  0.000E+00  1.01235E+03  2.970E+00  4.307E+01  4.389E-01  3.074E-01
   1   13    3     8     4    1.7286E+02 -9.4300E-01   1.7441E+02  6.027E-01  0.000E+00  0.000E+00  1.00610E+03  2.976E+00  4.315E+01  4.397E+00 -7.149E-02
   1   13    2     8     5    1.7441E+02 -1.0220E+00   1.7603E+02  6.027E-01  0.000E+00  0.000E+00  9.99861E+02  2.986E+00  4.330E+01  4.412E+00 -7.722E-02
   1   13    1     8     6    1.7603E+02 -8.0656E-01   1.7720E+02  3.616E-01  0.000E+00  0.000E+00  9.94870E+02  2.995E+00  4.342E+01  2.655E+00 -1.013E-01



 UBDSV3 SAVING "     NETRECHARGE" ON UNIT 100 AT TIME STEP 15, STRESS PERIOD  11
 UBDSV3 SAVING "    NETDISCHARGE" ON UNIT 101 AT TIME STEP 15, STRESS PERIOD  11
 UBDSV3 SAVING "           GW ET" ON UNIT  61 AT TIME STEP 15, STRESS PERIOD  11
 UBDSV3 SAVING "    UZF RECHARGE" ON UNIT  61 AT TIME STEP 15, STRESS PERIOD  11
 UBDSV3 SAVING " SURFACE LEAKAGE" ON UNIT  61 AT TIME STEP 15, STRESS PERIOD  11
 UBDSV3 SAVING "       HORT+DUNN" ON UNIT  61 AT TIME STEP 15, STRESS PERIOD  11
 UBDSV3 SAVING "  STORAGE CHANGE" ON UNIT  61 AT TIME STEP 15, STRESS PERIOD  11


UNSATURATED ZONE PACKAGE VOLUMETRIC BUDGET FOR  TIME STEP    15 STRESS PERIOD   11
  ------------------------------------------------------------------------------



     CUMULATIVE VOLUMES      L**3       RATES FOR THIS TIME STEP      L**3/T
     ------------------                 ------------------------

           IN:                                      IN:
           ---                                      ---
        INFILTRATION =    83833191.7871          INFILTRATION =           2.9000

          OUT:                                     OUT:
          ----                                     ----
              UZF ET =    26301494.1833                UZF ET =           1.1749
        UZF RECHARGE =     7879692.3965          UZF RECHARGE =       0.0000E+00

            IN - OUT =    49652005.2073              IN - OUT =           1.7251

          STORAGE:                                 STORAGE:
          --------                                 --------
      STORAGE CHANGE =    49652000.6102        STORAGE CHANGE =           1.7251

 PERCENT DISCREPANCY IS DIFFERENCE BETWEEN IN-OUT MINUS CHANGE IN STORAGE
 DIVIDED BY THE AVERAGE OF IN AND OUT TIMES 100

 PERCENT DISCREPANCY =           0.00     PERCENT DISCREPANCY =           0.00






1
              HEAD IN LAYER   1 AT END OF TIME STEP  15 IN STRESS PERIOD   11
  ---------------------------------------------------------------------------

           1       2       3       4       5       6       7       8       9      10
 ...................................................................................
   1  1032.55 1029.35 6999.00 6999.00 6999.00 6999.00 6999.00 6999.00 6999.00 6999.00
   2  1029.62 1025.35 1023.36 6999.00 6999.00 1021.97 1022.26 1022.43 6999.00 6999.00
   3  6999.00 1022.33 1021.05 1020.01 1019.97 1020.55 1021.38 1021.71 6999.00 6999.00
   4  1020.20 1020.22 1019.28 1018.37 1018.19 1018.32 1019.28 1020.98 1021.01 6999.00
   5  1019.29 1018.36 1017.27 1016.64 1016.84 1017.54 1018.21 1019.22 1020.35 1021.28
   6  1018.35 1016.97 1015.50 1014.29 1014.78 1016.60 1017.69 1018.79 1019.85 1021.19
   7  1017.68 1015.81 1014.19 1013.03 1013.72 1015.86 1017.22 1018.15 1019.61 6999.00
   8  6999.00 1014.78 1013.32 1012.30 1013.11 1015.36 1016.65 1018.05 1019.91 6999.00
   9  6999.00 1013.79 1012.78 1012.03 1012.93 1015.18 1016.49 1018.29 1020.76 6999.00
  10  6999.00 1012.68 1012.44 1012.21 1013.27 1015.58 1017.15 1019.23 1021.96 1022.86
  11  6999.00 1010.70 1011.58 1013.11 1014.60 1016.69 1018.72 1021.41 1024.52 6999.00
  12  1001.02 1006.03 1009.54 1012.42 1015.15 1018.25 1021.15 1025.63 1029.33 6999.00
  13   995.17 1000.09 1006.32 1011.42 1015.64 1020.61 1025.49 1030.98 1033.99 6999.00
  14  6999.00 1005.62 1008.39 1012.48 1016.63 1021.13 1026.36 1032.41 1037.20 6999.00
  15  6999.00 6999.00 1012.03 1014.49 1017.61 1020.43 6999.00 6999.00 6999.00 6999.00

 HEAD WILL BE SAVED ON UNIT   58 AT END OF TIME STEP   15, STRESS PERIOD   11
1
  VOLUMETRIC BUDGET FOR ENTIRE MODEL AT END OF TIME STEP   15, STRESS PERIOD  11
  ------------------------------------------------------------------------------

     CUMULATIVE VOLUMES      L**3       RATES FOR THIS TIME STEP      L**3/T
     ------------------                 ------------------------

           IN:                                      IN:
           ---                                      ---
             STORAGE =   501004832.0000               STORAGE =          22.7463
       CONSTANT HEAD =           0.0000         CONSTANT HEAD =           0.0000
               WELLS =           0.0000                 WELLS =           0.0000
     HEAD DEP BOUNDS =     8528069.0000       HEAD DEP BOUNDS =           0.2963
      STREAM LEAKAGE =   470960640.0000        STREAM LEAKAGE =          16.1473
        UZF RECHARGE =     7879697.5000          UZF RECHARGE =           0.0000
               GW ET =           0.0000                 GW ET =           0.0000
     SURFACE LEAKAGE =           0.0000       SURFACE LEAKAGE =           0.0000

            TOTAL IN =   988373248.0000              TOTAL IN =          39.1900

          OUT:                                     OUT:
          ----                                     ----
             STORAGE =   141866656.0000               STORAGE =           0.0000
       CONSTANT HEAD =           0.0000         CONSTANT HEAD =           0.0000
               WELLS =   578160000.0000                 WELLS =          30.0000
     HEAD DEP BOUNDS =     8161589.5000       HEAD DEP BOUNDS =           0.2726
      STREAM LEAKAGE =    94972408.0000        STREAM LEAKAGE =           2.7716
        UZF RECHARGE =           0.0000          UZF RECHARGE =           0.0000
               GW ET =   165227840.0000                 GW ET =           6.1469
     SURFACE LEAKAGE =           0.0000       SURFACE LEAKAGE =           0.0000

           TOTAL OUT =   988388480.0000             TOTAL OUT =          39.1911

            IN - OUT =      -15232.0000              IN - OUT =      -1.1482E-03

 PERCENT DISCREPANCY =          -0.00     PERCENT DISCREPANCY =          -0.00






         TIME SUMMARY AT END OF TIME STEP   15 IN STRESS PERIOD   11
                    SECONDS     MINUTES      HOURS       DAYS        YEARS
                    -----------------------------------------------------------
   TIME STEP LENGTH 3.14103E+05  5235.0      87.251      3.6354     9.95332E-03
 STRESS PERIOD TIME 2.62800E+06  43800.      730.00      30.417     8.32763E-02
         TOTAL TIME 2.89080E+07 4.81800E+05  8030.0      334.58     0.91604    
1
1
                            STRESS PERIOD NO.   12, LENGTH =   2628000.    
                            -----------------------------------------------

                              NUMBER OF TIME STEPS =    15

                               MULTIPLIER FOR DELT =     1.100

                            INITIAL TIME STEP SIZE =   82713.07    

      0 WELLS

 REUSING NON-PARAMETER GHB CELLS FROM LAST STRESS PERIOD

      2 GHB CELLS

 REUSING STREAM SEGMENT DATA FROM LAST STRESS PERIOD



            AREAL INFILTRATION RATE
 READING ON UNIT   19 WITH FORMAT: (10F4.0)            

            1           2           3           4           5           6           7           8           9          10
 ........................................................................................................................
   1   1.0000E-09  2.0000E-09   0.000       0.000       0.000       0.000       0.000       0.000       0.000       0.000    
   2   2.0000E-09  1.0000E-09  2.0000E-09   0.000       0.000      8.0000E-09  8.0000E-09  5.0000E-09   0.000       0.000    
   3    0.000      5.0000E-09  1.0000E-09  1.0000E-09  8.0000E-09  8.0000E-09  5.0000E-09  5.0000E-09   0.000       0.000    
   4   8.0000E-09  5.0000E-09  1.0000E-09  1.0000E-09  1.0000E-09  1.0000E-09  1.0000E-09  1.0000E-09  2.0000E-09   0.000    
   5   8.0000E-09  5.0000E-09  1.0000E-09  1.0000E-09  1.0000E-09  1.0000E-09  1.0000E-09  1.0000E-09  1.0000E-09  1.0000E-09
   6   8.0000E-09  5.0000E-09  5.0000E-09  2.0000E-09  2.0000E-09  1.0000E-09  1.0000E-09  1.0000E-09  1.0000E-09  5.0000E-09
   7   8.0000E-09  5.0000E-09  5.0000E-09  2.0000E-09  2.0000E-09  1.0000E-09  1.0000E-09  2.0000E-09  2.0000E-09   0.000    
   8    0.000      5.0000E-09  5.0000E-09  2.0000E-09  2.0000E-09  1.0000E-09  1.0000E-09  2.0000E-09  5.0000E-09   0.000    
   9    0.000      5.0000E-09  5.0000E-09  2.0000E-09  2.0000E-09  1.0000E-09  1.0000E-09  2.0000E-09  5.0000E-09   0.000    
  10    0.000      5.0000E-09  5.0000E-09  2.0000E-09  2.0000E-09  1.0000E-09  1.0000E-09  2.0000E-09  5.0000E-09  8.0000E-09
  11    0.000      1.0000E-09  1.0000E-09  1.0000E-09  1.0000E-09  1.0000E-09  1.0000E-09  2.0000E-09  5.0000E-09   0.000    
  12   1.0000E-09  1.0000E-09  1.0000E-09  1.0000E-09  1.0000E-09  1.0000E-09  1.0000E-09  1.0000E-09  2.0000E-09   0.000    
  13   1.0000E-09  1.0000E-09  2.0000E-09  2.0000E-09  2.0000E-09  2.0000E-09  2.0000E-09  1.0000E-09  1.0000E-09   0.000    
  14    0.000      2.0000E-09  5.0000E-09  5.0000E-09  5.0000E-09  5.0000E-09  5.0000E-09  2.0000E-09  1.0000E-09   0.000    
  15    0.000       0.000      8.0000E-09  8.0000E-09  8.0000E-09  8.0000E-09   0.000       0.000       0.000       0.000    

USING ET RATE FROM PREVIOUS STRESS PERIOD. CURRENT PERIOD IS:      12

 USING ET EXTINCTION DEPTH FROM PREVIOUS STRESS PERIOD. CURRENT PERIOD IS:      12

 USING EXTINCTION WATER CONTENT FROM PREVIOUS STRESS PERIOD. CURRENT PERIOD IS:      12
 
 SOLVING FOR HEAD 
                                                   Max.-Head-Change                         Max.-Flux-Residual
  Residual-Control   Outer-Iter.   Inner-Iter.     Column Row Layer    Maximum-Head-Change  Column Row Layer    Maximum-Flux-Residual          L2-NORM 
          0                 1           2             5   10     1       0.3194940581E-01       5   10    1         0.1824779334E+01      0.5120872229E+01
          0                 2           2             5   10     1      -0.3165895092E-02       5   10    1        -0.1824778822E+00      0.5120834689E+00
          0                 3           2             5   10     1       0.2823427002E-03       5   10    1         0.1642301192E-01      0.4608723445E-01
          0                 4           1             5   10     1      -0.2241043837E-04       5   10    1        -0.1315483588E-02      0.3691552811E-02

    ------------------------------------------------
       NWT REQUIRED            4 OUTER ITERATIONS 
       AND A TOTAL OF          7 INNER ITERATIONS.
    ------------------------------------------------

 NO OUTPUT CONTROL FOR STRESS PERIOD   12   TIME STEP    1
 
 SOLVING FOR HEAD 
                                                   Max.-Head-Change                         Max.-Flux-Residual
  Residual-Control   Outer-Iter.   Inner-Iter.     Column Row Layer    Maximum-Head-Change  Column Row Layer    Maximum-Flux-Residual          L2-NORM 
          0                 1           2             5   10     1       0.3381093305E-01       5   10    1         0.1760027887E+01      0.5012202772E+01
          0                 2           2             5   10     1      -0.3350355026E-02       5   10    1        -0.1760027076E+00      0.5012164077E+00
          0                 3           2             5   10     1       0.2987933182E-03       5   10    1         0.1584024644E-01      0.4510921919E-01
          0                 4           1             5   10     1      -0.2371617587E-04       5   10    1        -0.1268804052E-02      0.3613226178E-02

    ------------------------------------------------
       NWT REQUIRED            4 OUTER ITERATIONS 
       AND A TOTAL OF          7 INNER ITERATIONS.
    ------------------------------------------------

 NO OUTPUT CONTROL FOR STRESS PERIOD   12   TIME STEP    2
 
 SOLVING FOR HEAD 
                                                   Max.-Head-Change                         Max.-Flux-Residual
  Residual-Control   Outer-Iter.   Inner-Iter.     Column Row Layer    Maximum-Head-Change  Column Row Layer    Maximum-Flux-Residual          L2-NORM 
          0                 1           2             5   10     1       0.3568736686E-01       5   10    1         0.1693245487E+01      0.4899746255E+01
          0                 2           2             5   10     1      -0.3536291951E-02       5   10    1        -0.1693244358E+00      0.4899705588E+00
          0                 3           2             5   10     1       0.3153756590E-03       5   10    1         0.1523920221E-01      0.4409702959E-01
          0                 4           1             5   10     1      -0.2503236888E-04       5   10    1        -0.1220660394E-02      0.3532153207E-02

    ------------------------------------------------
       NWT REQUIRED            4 OUTER ITERATIONS 
       AND A TOTAL OF          7 INNER ITERATIONS.
    ------------------------------------------------

 NO OUTPUT CONTROL FOR STRESS PERIOD   12   TIME STEP    3
 
 SOLVING FOR HEAD 
                                                   Max.-Head-Change                         Max.-Flux-Residual
  Residual-Control   Outer-Iter.   Inner-Iter.     Column Row Layer    Maximum-Head-Change  Column Row Layer    Maximum-Flux-Residual          L2-NORM 
          0                 1           2             5   10     1       0.3756817846E-01       5   10    1         0.1624750881E+01      0.4783888542E+01
          0                 2           2             5   10     1      -0.3722662553E-02       5   10    1        -0.1624749422E+00      0.4783847133E+00
          0                 3           2             5   10     1       0.3319966780E-03       5   10    1         0.1462274806E-01      0.4305428867E-01
          0                 4           1             5   10     1      -0.2635163221E-04       5   10    1        -0.1171282412E-02      0.3448626109E-02

    ------------------------------------------------
       NWT REQUIRED            4 OUTER ITERATIONS 
       AND A TOTAL OF          7 INNER ITERATIONS.
    ------------------------------------------------

 NO OUTPUT CONTROL FOR STRESS PERIOD   12   TIME STEP    4
 
 SOLVING FOR HEAD 
                                                   Max.-Head-Change                         Max.-Flux-Residual
  Residual-Control   Outer-Iter.   Inner-Iter.     Column Row Layer    Maximum-Head-Change  Column Row Layer    Maximum-Flux-Residual          L2-NORM 
          0                 1           2             5    6     1       0.3945645496E-01       5   10    1         0.1554884115E+01      0.4665076989E+01
          0                 2           2             5    6     1      -0.3909772526E-02       5   10    1        -0.1554882321E+00      0.4665035330E+00
          0                 3           2             5    6     1       0.3486836383E-03       5   10    1         0.1399394440E-01      0.4198498832E-01
          0                 4           1             5    6     1      -0.2767612919E-04       5   10    1        -0.1120915216E-02      0.3362977963E-02

    ------------------------------------------------
       NWT REQUIRED            4 OUTER ITERATIONS 
       AND A TOTAL OF          7 INNER ITERATIONS.
    ------------------------------------------------

 OUTPUT CONTROL FOR STRESS PERIOD   12   TIME STEP    5
    PRINT BUDGET
    SAVE BUDGET

  HEAD DEP BOUNDS   PERIOD   12   STEP     5
 BOUNDARY      1   LAYER   1   ROW    13   COL     1   RATE   -0.272447    
 BOUNDARY      2   LAYER   1   ROW    14   COL     9   RATE    0.296378    



 STREAM LISTING     PERIOD     12   STEP        5

 LAYER ROW COL. STREAM  RCH.  FLOW INTO     FLOW TO   FLOW OUT OF   OVRLND.     DIRECT     STREAM       STREAM     STREAM     STREAM   STREAMBED  STREAMBED
                SEG.NO.  NO.  STRM. RCH.    AQUIFER    STRM. RCH.    RUNOFF     PRECIP       ET          HEAD       DEPTH      WIDTH   CONDCTNC.   GRADIENT

   1    1    1     1     1    2.5000E+01  2.4523E-01   2.4789E+01  3.416E-02  0.000E+00  0.000E+00  1.09423E+03  1.179E+00  1.304E+01  5.869E-02  1.393E+00
   1    2    2     1     2    2.4789E+01  3.7953E-01   2.4463E+01  5.315E-02  0.000E+00  0.000E+00  1.08923E+03  1.175E+00  1.299E+01  9.091E-02  1.392E+00
   1    3    3     1     3    2.4463E+01  3.2343E-01   2.4185E+01  4.555E-02  0.000E+00  0.000E+00  1.08359E+03  1.170E+00  1.293E+01  7.756E-02  1.390E+00
   1    3    4     1     4    2.4185E+01  2.9763E-01   2.3929E+01  4.214E-02  0.000E+00  0.000E+00  1.07857E+03  1.166E+00  1.287E+01  7.144E-02  1.389E+00
   1    4    5     2     1    1.3929E+01  2.9988E-01   1.3629E+01  0.000E+00  0.000E+00  0.000E+00  1.07278E+03  8.447E-01  1.200E+01  7.800E-02  1.282E+00
   1    5    6     2     2    1.3629E+01  2.3009E-01   1.3399E+01  0.000E+00  0.000E+00  0.000E+00  1.06734E+03  8.349E-01  1.200E+01  6.000E-02  1.278E+00
   1    6    6     2     3    1.3399E+01  2.2958E-01   1.3170E+01  0.000E+00  0.000E+00  0.000E+00  1.06262E+03  8.263E-01  1.200E+01  6.000E-02  1.275E+00
   1    7    6     2     4    1.3170E+01  2.2906E-01   1.2941E+01  0.000E+00  0.000E+00  0.000E+00  1.05789E+03  8.177E-01  1.200E+01  6.000E-02  1.273E+00
   1    8    6     2     5    1.2941E+01  2.2855E-01   1.2712E+01  0.000E+00  0.000E+00  0.000E+00  1.05317E+03  8.091E-01  1.200E+01  6.000E-02  1.270E+00
   1    3    5     3     1    1.0000E+01  2.8252E-01   9.9038E+00  1.864E-01  0.000E+00  0.000E+00  1.07555E+03  1.909E+00  9.636E+00  7.227E-02  1.955E+00
   1    3    6     3     2    9.9038E+00  2.4905E-01   9.8412E+00  1.864E-01  0.000E+00  0.000E+00  1.07264E+03  1.727E+00  8.909E+00  6.682E-02  1.864E+00
   1    3    7     3     3    9.8412E+00  1.9718E-01   9.8117E+00  1.677E-01  0.000E+00  0.000E+00  1.06987E+03  1.555E+00  8.218E+00  5.547E-02  1.777E+00
   1    4    8     3     4    9.8117E+00  2.2567E-01   9.8097E+00  2.236E-01  0.000E+00  0.000E+00  1.06682E+03  1.364E+00  7.455E+00  6.709E-02  1.682E+00
   1    5    8     3     5    9.8097E+00  1.5790E-01   9.8381E+00  1.864E-01  0.000E+00  0.000E+00  1.06362E+03  1.164E+00  6.655E+00  4.991E-02  1.582E+00
   1    6    8     3     6    9.8381E+00  5.5980E-02   9.8567E+00  7.455E-02  0.000E+00  0.000E+00  1.06158E+03  1.036E+00  6.145E+00  1.844E-02  1.518E+00
   1    5   10     4     1    1.0000E+01  9.0930E-02   9.9318E+00  2.273E-02  0.000E+00  0.000E+00  1.07836E+03  6.372E-01  1.000E+01  2.500E-02  1.212E+00
   1    5    9     4     2    9.9318E+00  1.8166E-01   9.7956E+00  4.545E-02  0.000E+00  0.000E+00  1.07154E+03  6.333E-01  1.000E+01  5.000E-02  1.211E+00
   1    6    8     4     3    9.7956E+00  1.2701E-01   9.7004E+00  3.182E-02  0.000E+00  0.000E+00  1.06381E+03  6.288E-01  1.000E+01  3.500E-02  1.210E+00
   1    6    8     5     1    1.9557E+01  3.4654E-01   1.9257E+01  4.667E-02  0.000E+00  0.000E+00  1.05885E+03  8.470E-01  2.252E+01  9.008E-02  1.282E+00
   1    7    7     5     2    1.9257E+01  4.2810E-01   1.8887E+01  5.833E-02  0.000E+00  0.000E+00  1.05434E+03  8.419E-01  2.229E+01  1.114E-01  1.281E+00
   1    8    7     5     3    1.8887E+01  2.9634E-01   1.8632E+01  4.083E-02  0.000E+00  0.000E+00  1.05009E+03  8.370E-01  2.207E+01  7.723E-02  1.279E+00
   1    8    6     5     4    1.8632E+01  2.1000E-01   1.8451E+01  2.917E-02  0.000E+00  0.000E+00  1.04708E+03  8.336E-01  2.191E+01  5.478E-02  1.278E+00
   1    9    6     6     1    3.1163E+01  2.6349E-01   3.1002E+01  1.023E-01  0.000E+00  0.000E+00  1.04412E+03  1.391E+00  1.200E+01  6.000E-02  1.464E+00
   1   10    7     6     2    3.1002E+01  2.6323E-01   3.0841E+01  1.023E-01  0.000E+00  0.000E+00  1.03957E+03  1.387E+00  1.200E+01  6.000E-02  1.462E+00
   1   11    7     6     3    3.0841E+01  2.6297E-01   3.0680E+01  1.023E-01  0.000E+00  0.000E+00  1.03502E+03  1.383E+00  1.200E+01  6.000E-02  1.461E+00
   1   12    7     6     4    3.0680E+01  2.6271E-01   3.0520E+01  1.023E-01  0.000E+00  0.000E+00  1.03047E+03  1.378E+00  1.200E+01  6.000E-02  1.459E+00
   1   13    7     6     5    3.0520E+01  4.3206E-02   3.0518E+01  4.091E-02  0.000E+00  0.000E+00  1.02729E+03  1.376E+00  1.200E+01  2.400E-02  6.001E-01
   1   14    9     7     1    1.5000E+02  1.4920E+00   1.4860E+02  8.871E-02  0.000E+00  0.000E+00  1.03987E+03  2.288E+00  5.529E+01  5.593E-01  8.892E-01
   1   13    8     7     2    1.4860E+02  2.3391E+00   1.4636E+02  9.758E-02  0.000E+00  0.000E+00  1.03478E+03  2.278E+00  5.525E+01  6.147E-01  1.268E+00
   1   13    7     7     3    1.4636E+02  2.3446E+00   1.4410E+02  8.871E-02  0.000E+00  0.000E+00  1.02969E+03  2.266E+00  5.520E+01  5.582E-01  1.400E+00
   1   13    6     8     1    1.7462E+02  1.8709E+00   1.7335E+02  6.027E-01  0.000E+00  0.000E+00  1.02485E+03  2.978E+00  4.318E+01  4.400E-01  1.417E+00
   1   13    5     8     2    1.7335E+02  1.3016E+00   1.7265E+02  6.027E-01  0.000E+00  0.000E+00  1.01860E+03  2.972E+00  4.309E+01  4.391E-01  9.881E-01
   1   13    4     8     3    1.7265E+02  4.0750E-01   1.7284E+02  6.027E-01  0.000E+00  0.000E+00  1.01235E+03  2.970E+00  4.307E+01  4.388E-01  3.095E-01
   1   13    3     8     4    1.7284E+02 -9.3198E-01   1.7438E+02  6.027E-01  0.000E+00  0.000E+00  1.00610E+03  2.976E+00  4.315E+01  4.397E+00 -7.066E-02
   1   13    2     8     5    1.7438E+02 -1.0120E+00   1.7599E+02  6.027E-01  0.000E+00  0.000E+00  9.99861E+02  2.986E+00  4.329E+01  4.412E+00 -7.647E-02
   1   13    1     8     6    1.7599E+02 -7.9685E-01   1.7715E+02  3.616E-01  0.000E+00  0.000E+00  9.94870E+02  2.995E+00  4.342E+01  2.655E+00 -1.001E-01



 UBDSV3 SAVING "     NETRECHARGE" ON UNIT 100 AT TIME STEP  5, STRESS PERIOD  12
 UBDSV3 SAVING "    NETDISCHARGE" ON UNIT 101 AT TIME STEP  5, STRESS PERIOD  12
 UBDSV3 SAVING "           GW ET" ON UNIT  61 AT TIME STEP  5, STRESS PERIOD  12
 UBDSV3 SAVING "    UZF RECHARGE" ON UNIT  61 AT TIME STEP  5, STRESS PERIOD  12
 UBDSV3 SAVING " SURFACE LEAKAGE" ON UNIT  61 AT TIME STEP  5, STRESS PERIOD  12
 UBDSV3 SAVING "       HORT+DUNN" ON UNIT  61 AT TIME STEP  5, STRESS PERIOD  12
 UBDSV3 SAVING "  STORAGE CHANGE" ON UNIT  61 AT TIME STEP  5, STRESS PERIOD  12


UNSATURATED ZONE PACKAGE VOLUMETRIC BUDGET FOR  TIME STEP     5 STRESS PERIOD   12
  ------------------------------------------------------------------------------



     CUMULATIVE VOLUMES      L**3       RATES FOR THIS TIME STEP      L**3/T
     ------------------                 ------------------------

           IN:                                      IN:
           ---                                      ---
        INFILTRATION =    85297609.3467          INFILTRATION =           2.9000

          OUT:                                     OUT:
          ----                                     ----
              UZF ET =    26893225.6142                UZF ET =           1.1723
        UZF RECHARGE =     7879692.3965          UZF RECHARGE =       0.0000E+00

            IN - OUT =    50524691.3360              IN - OUT =           1.7277

          STORAGE:                                 STORAGE:
          --------                                 --------
      STORAGE CHANGE =    50524686.7207        STORAGE CHANGE =           1.7277

 PERCENT DISCREPANCY IS DIFFERENCE BETWEEN IN-OUT MINUS CHANGE IN STORAGE
 DIVIDED BY THE AVERAGE OF IN AND OUT TIMES 100

 PERCENT DISCREPANCY =           0.00     PERCENT DISCREPANCY =           0.00






1
  VOLUMETRIC BUDGET FOR ENTIRE MODEL AT END OF TIME STEP    5, STRESS PERIOD  12
  ------------------------------------------------------------------------------

     CUMULATIVE VOLUMES      L**3       RATES FOR THIS TIME STEP      L**3/T
     ------------------                 ------------------------

           IN:                                      IN:
           ---                                      ---
             STORAGE =   504761632.0000               STORAGE =           6.8384
       CONSTANT HEAD =           0.0000         CONSTANT HEAD =           0.0000
               WELLS =           0.0000                 WELLS =           0.0000
     HEAD DEP BOUNDS =     8677721.0000       HEAD DEP BOUNDS =           0.2964
      STREAM LEAKAGE =   479119424.0000        STREAM LEAKAGE =          16.1632
        UZF RECHARGE =     7879697.5000          UZF RECHARGE =           0.0000
               GW ET =           0.0000                 GW ET =           0.0000
     SURFACE LEAKAGE =           0.0000       SURFACE LEAKAGE =           0.0000

            TOTAL IN =  1000438464.0000              TOTAL IN =          23.2980

          OUT:                                     OUT:
          ----                                     ----
             STORAGE =   149300048.0000               STORAGE =          14.1371
       CONSTANT HEAD =           0.0000         CONSTANT HEAD =           0.0000
               WELLS =   578160000.0000                 WELLS =           0.0000
     HEAD DEP BOUNDS =     8299196.0000       HEAD DEP BOUNDS =           0.2724
      STREAM LEAKAGE =    96362312.0000        STREAM LEAKAGE =           2.7409
        UZF RECHARGE =           0.0000          UZF RECHARGE =           0.0000
               GW ET =   168332000.0000                 GW ET =           6.1472
     SURFACE LEAKAGE =           0.0000       SURFACE LEAKAGE =           0.0000

           TOTAL OUT =  1000453504.0000             TOTAL OUT =          23.2976

            IN - OUT =      -15040.0000              IN - OUT =       3.7384E-04

 PERCENT DISCREPANCY =          -0.00     PERCENT DISCREPANCY =           0.00






         TIME SUMMARY AT END OF TIME STEP    5 IN STRESS PERIOD   12
                    SECONDS     MINUTES      HOURS       DAYS        YEARS
                    -----------------------------------------------------------
   TIME STEP LENGTH 1.21100E+05  2018.3      33.639      1.4016     3.83743E-03
 STRESS PERIOD TIME 5.04972E+05  8416.2      140.27      5.8446     1.60016E-02
         TOTAL TIME 2.94130E+07 4.90216E+05  8170.3      340.43     0.93204    
1
 
 SOLVING FOR HEAD 
                                                   Max.-Head-Change                         Max.-Flux-Residual
  Residual-Control   Outer-Iter.   Inner-Iter.     Column Row Layer    Maximum-Head-Change  Column Row Layer    Maximum-Flux-Residual          L2-NORM 
          0                 1           2             5    6     1       0.4138437346E-01       5    6    1         0.1484442018E+01      0.4543800171E+01
          0                 2           2             5    6     1      -0.4100810858E-02       5    6    1        -0.1484439876E+00      0.4543759064E+00
          0                 3           2             5    6     1       0.3657209384E-03       5    6    1         0.1335996264E-01      0.4089350537E-01
          0                 4           1             5    6     1      -0.2902843394E-04       5    6    1        -0.1070133269E-02      0.3275555090E-02

    ------------------------------------------------
       NWT REQUIRED            4 OUTER ITERATIONS 
       AND A TOTAL OF          7 INNER ITERATIONS.
    ------------------------------------------------

 NO OUTPUT CONTROL FOR STRESS PERIOD   12   TIME STEP    6
 
 SOLVING FOR HEAD 
                                                   Max.-Head-Change                         Max.-Flux-Residual
  Residual-Control   Outer-Iter.   Inner-Iter.     Column Row Layer    Maximum-Head-Change  Column Row Layer    Maximum-Flux-Residual          L2-NORM 
          0                 1           2             4   10     1       0.4392242209E-01       5    6    1         0.1415438735E+01      0.4420593919E+01
          0                 2           2             4   10     1      -0.4383563698E-02       4   10    1        -0.1422064493E+00      0.4424786041E+00
          0                 3           2             4   10     1       0.3909371420E-03       4   10    1         0.1279856627E-01      0.3982272752E-01
          0                 4           1             4   10     1      -0.3102992744E-04       4   10    1        -0.1025165538E-02      0.3189793899E-02

    ------------------------------------------------
       NWT REQUIRED            4 OUTER ITERATIONS 
       AND A TOTAL OF          7 INNER ITERATIONS.
    ------------------------------------------------

 NO OUTPUT CONTROL FOR STRESS PERIOD   12   TIME STEP    7
 
 SOLVING FOR HEAD 
                                                   Max.-Head-Change                         Max.-Flux-Residual
  Residual-Control   Outer-Iter.   Inner-Iter.     Column Row Layer    Maximum-Head-Change  Column Row Layer    Maximum-Flux-Residual          L2-NORM 
          0                 1           2             4    7     1       0.4681901491E-01       4   10    1         0.1364132305E+01      0.4295659811E+01
          0                 2           2             4    7     1      -0.4639351327E-02       4   10    1        -0.1364149381E+00      0.4295626110E+00
          0                 3           2             4    7     1       0.4137491998E-03       4   10    1         0.1227732918E-01      0.3866022748E-01
          0                 4           1             4    7     1      -0.3284059118E-04       4   10    1        -0.9834144457E-03      0.3096659382E-02

    ------------------------------------------------
       NWT REQUIRED            4 OUTER ITERATIONS 
       AND A TOTAL OF          7 INNER ITERATIONS.
    ------------------------------------------------

 NO OUTPUT CONTROL FOR STRESS PERIOD   12   TIME STEP    8
 
 SOLVING FOR HEAD 
                                                   Max.-Head-Change                         Max.-Flux-Residual
  Residual-Control   Outer-Iter.   Inner-Iter.     Column Row Layer    Maximum-Head-Change  Column Row Layer    Maximum-Flux-Residual          L2-NORM 
          0                 1           2             4    9     1       0.5094332821E-01       4    7    1         0.1323052618E+01      0.4169598391E+01
          0                 2           2             4    9     1      -0.5048044063E-02       4    7    1        -0.1323060169E+00      0.4169567539E+00
          0                 3           2             4    9     1       0.4501973651E-03       4    7    1         0.1190753558E-01      0.3752573667E-01
          0                 4           1             4    9     1      -0.3573359845E-04       4    7    1        -0.9537939104E-03      0.3005807778E-02

    ------------------------------------------------
       NWT REQUIRED            4 OUTER ITERATIONS 
       AND A TOTAL OF          7 INNER ITERATIONS.
    ------------------------------------------------

 NO OUTPUT CONTROL FOR STRESS PERIOD   12   TIME STEP    9
 
 SOLVING FOR HEAD 
                                                   Max.-Head-Change                         Max.-Flux-Residual
  Residual-Control   Outer-Iter.   Inner-Iter.     Column Row Layer    Maximum-Head-Change  Column Row Layer    Maximum-Flux-Residual          L2-NORM 
          0                 1           2             4    9     1       0.5537838608E-01       4    7    1         0.1308706500E+01      0.4043218413E+01
          0                 2           2             4    9     1      -0.5487532856E-02       4    7    1        -0.1308717637E+00      0.4043191376E+00
          0                 3           2             4    9     1       0.4893919626E-03       4    7    1         0.1177844926E-01      0.3638831669E-01
          0                 4           1             4    9     1      -0.3884460019E-04       4    7    1        -0.9434541130E-03      0.2914669223E-02

    ------------------------------------------------
       NWT REQUIRED            4 OUTER ITERATIONS 
       AND A TOTAL OF          7 INNER ITERATIONS.
    ------------------------------------------------

 OUTPUT CONTROL FOR STRESS PERIOD   12   TIME STEP   10
    PRINT BUDGET
    SAVE BUDGET

  HEAD DEP BOUNDS   PERIOD   12   STEP    10
 BOUNDARY      1   LAYER   1   ROW    13   COL     1   RATE   -0.272276    
 BOUNDARY      2   LAYER   1   ROW    14   COL     9   RATE    0.296451    



 STREAM LISTING     PERIOD     12   STEP       10

 LAYER ROW COL. STREAM  RCH.  FLOW INTO     FLOW TO   FLOW OUT OF   OVRLND.     DIRECT     STREAM       STREAM     STREAM     STREAM   STREAMBED  STREAMBED
                SEG.NO.  NO.  STRM. RCH.    AQUIFER    STRM. RCH.    RUNOFF     PRECIP       ET          HEAD       DEPTH      WIDTH   CONDCTNC.   GRADIENT

   1    1    1     1     1    2.5000E+01  2.4523E-01   2.4789E+01  3.416E-02  0.000E+00  0.000E+00  1.09423E+03  1.179E+00  1.304E+01  5.869E-02  1.393E+00
   1    2    2     1     2    2.4789E+01  3.7953E-01   2.4463E+01  5.315E-02  0.000E+00  0.000E+00  1.08923E+03  1.175E+00  1.299E+01  9.091E-02  1.392E+00
   1    3    3     1     3    2.4463E+01  3.2343E-01   2.4185E+01  4.555E-02  0.000E+00  0.000E+00  1.08359E+03  1.170E+00  1.293E+01  7.756E-02  1.390E+00
   1    3    4     1     4    2.4185E+01  2.9763E-01   2.3929E+01  4.214E-02  0.000E+00  0.000E+00  1.07857E+03  1.166E+00  1.287E+01  7.144E-02  1.389E+00
   1    4    5     2     1    1.3929E+01  2.9988E-01   1.3629E+01  0.000E+00  0.000E+00  0.000E+00  1.07278E+03  8.447E-01  1.200E+01  7.800E-02  1.282E+00
   1    5    6     2     2    1.3629E+01  2.3009E-01   1.3399E+01  0.000E+00  0.000E+00  0.000E+00  1.06734E+03  8.349E-01  1.200E+01  6.000E-02  1.278E+00
   1    6    6     2     3    1.3399E+01  2.2958E-01   1.3170E+01  0.000E+00  0.000E+00  0.000E+00  1.06262E+03  8.263E-01  1.200E+01  6.000E-02  1.275E+00
   1    7    6     2     4    1.3170E+01  2.2906E-01   1.2941E+01  0.000E+00  0.000E+00  0.000E+00  1.05789E+03  8.177E-01  1.200E+01  6.000E-02  1.273E+00
   1    8    6     2     5    1.2941E+01  2.2855E-01   1.2712E+01  0.000E+00  0.000E+00  0.000E+00  1.05317E+03  8.091E-01  1.200E+01  6.000E-02  1.270E+00
   1    3    5     3     1    1.0000E+01  2.8252E-01   9.9038E+00  1.864E-01  0.000E+00  0.000E+00  1.07555E+03  1.909E+00  9.636E+00  7.227E-02  1.955E+00
   1    3    6     3     2    9.9038E+00  2.4905E-01   9.8412E+00  1.864E-01  0.000E+00  0.000E+00  1.07264E+03  1.727E+00  8.909E+00  6.682E-02  1.864E+00
   1    3    7     3     3    9.8412E+00  1.9718E-01   9.8117E+00  1.677E-01  0.000E+00  0.000E+00  1.06987E+03  1.555E+00  8.218E+00  5.547E-02  1.777E+00
   1    4    8     3     4    9.8117E+00  2.2567E-01   9.8097E+00  2.236E-01  0.000E+00  0.000E+00  1.06682E+03  1.364E+00  7.455E+00  6.709E-02  1.682E+00
   1    5    8     3     5    9.8097E+00  1.5790E-01   9.8381E+00  1.864E-01  0.000E+00  0.000E+00  1.06362E+03  1.164E+00  6.655E+00  4.991E-02  1.582E+00
   1    6    8     3     6    9.8381E+00  5.5980E-02   9.8567E+00  7.455E-02  0.000E+00  0.000E+00  1.06158E+03  1.036E+00  6.145E+00  1.844E-02  1.518E+00
   1    5   10     4     1    1.0000E+01  9.0930E-02   9.9318E+00  2.273E-02  0.000E+00  0.000E+00  1.07836E+03  6.372E-01  1.000E+01  2.500E-02  1.212E+00
   1    5    9     4     2    9.9318E+00  1.8166E-01   9.7956E+00  4.545E-02  0.000E+00  0.000E+00  1.07154E+03  6.333E-01  1.000E+01  5.000E-02  1.211E+00
   1    6    8     4     3    9.7956E+00  1.2701E-01   9.7004E+00  3.182E-02  0.000E+00  0.000E+00  1.06381E+03  6.288E-01  1.000E+01  3.500E-02  1.210E+00
   1    6    8     5     1    1.9557E+01  3.4654E-01   1.9257E+01  4.667E-02  0.000E+00  0.000E+00  1.05885E+03  8.470E-01  2.252E+01  9.008E-02  1.282E+00
   1    7    7     5     2    1.9257E+01  4.2810E-01   1.8887E+01  5.833E-02  0.000E+00  0.000E+00  1.05434E+03  8.419E-01  2.229E+01  1.114E-01  1.281E+00
   1    8    7     5     3    1.8887E+01  2.9634E-01   1.8632E+01  4.083E-02  0.000E+00  0.000E+00  1.05009E+03  8.370E-01  2.207E+01  7.723E-02  1.279E+00
   1    8    6     5     4    1.8632E+01  2.1000E-01   1.8451E+01  2.917E-02  0.000E+00  0.000E+00  1.04708E+03  8.336E-01  2.191E+01  5.478E-02  1.278E+00
   1    9    6     6     1    3.1163E+01  2.6349E-01   3.1002E+01  1.023E-01  0.000E+00  0.000E+00  1.04412E+03  1.391E+00  1.200E+01  6.000E-02  1.464E+00
   1   10    7     6     2    3.1002E+01  2.6323E-01   3.0841E+01  1.023E-01  0.000E+00  0.000E+00  1.03957E+03  1.387E+00  1.200E+01  6.000E-02  1.462E+00
   1   11    7     6     3    3.0841E+01  2.6297E-01   3.0680E+01  1.023E-01  0.000E+00  0.000E+00  1.03502E+03  1.383E+00  1.200E+01  6.000E-02  1.461E+00
   1   12    7     6     4    3.0680E+01  2.6271E-01   3.0520E+01  1.023E-01  0.000E+00  0.000E+00  1.03047E+03  1.378E+00  1.200E+01  6.000E-02  1.459E+00
   1   13    7     6     5    3.0520E+01  4.3432E-02   3.0517E+01  4.091E-02  0.000E+00  0.000E+00  1.02729E+03  1.376E+00  1.200E+01  2.400E-02  6.032E-01
   1   14    9     7     1    1.5000E+02  1.4931E+00   1.4860E+02  8.871E-02  0.000E+00  0.000E+00  1.03987E+03  2.288E+00  5.529E+01  5.593E-01  8.899E-01
   1   13    8     7     2    1.4860E+02  2.3426E+00   1.4635E+02  9.758E-02  0.000E+00  0.000E+00  1.03478E+03  2.278E+00  5.525E+01  6.147E-01  1.270E+00
   1   13    7     7     3    1.4635E+02  2.3498E+00   1.4409E+02  8.871E-02  0.000E+00  0.000E+00  1.02969E+03  2.266E+00  5.520E+01  5.582E-01  1.403E+00
   1   13    6     8     1    1.7461E+02  1.8760E+00   1.7333E+02  6.027E-01  0.000E+00  0.000E+00  1.02485E+03  2.978E+00  4.318E+01  4.400E-01  1.421E+00
   1   13    5     8     2    1.7333E+02  1.3066E+00   1.7263E+02  6.027E-01  0.000E+00  0.000E+00  1.01860E+03  2.972E+00  4.309E+01  4.391E-01  9.919E-01
   1   13    4     8     3    1.7263E+02  4.1180E-01   1.7282E+02  6.027E-01  0.000E+00  0.000E+00  1.01234E+03  2.970E+00  4.306E+01  4.388E-01  3.128E-01
   1   13    3     8     4    1.7282E+02 -9.1798E-01   1.7434E+02  6.027E-01  0.000E+00  0.000E+00  1.00610E+03  2.975E+00  4.314E+01  4.396E+00 -6.960E-02
   1   13    2     8     5    1.7434E+02 -1.0015E+00   1.7595E+02  6.027E-01  0.000E+00  0.000E+00  9.99860E+02  2.985E+00  4.329E+01  4.411E+00 -7.568E-02
   1   13    1     8     6    1.7595E+02 -7.8574E-01   1.7709E+02  3.616E-01  0.000E+00  0.000E+00  9.94869E+02  2.994E+00  4.342E+01  2.655E+00 -9.867E-02



 UBDSV3 SAVING "     NETRECHARGE" ON UNIT 100 AT TIME STEP 10, STRESS PERIOD  12
 UBDSV3 SAVING "    NETDISCHARGE" ON UNIT 101 AT TIME STEP 10, STRESS PERIOD  12
 UBDSV3 SAVING "           GW ET" ON UNIT  61 AT TIME STEP 10, STRESS PERIOD  12
 UBDSV3 SAVING "    UZF RECHARGE" ON UNIT  61 AT TIME STEP 10, STRESS PERIOD  12
 UBDSV3 SAVING " SURFACE LEAKAGE" ON UNIT  61 AT TIME STEP 10, STRESS PERIOD  12
 UBDSV3 SAVING "       HORT+DUNN" ON UNIT  61 AT TIME STEP 10, STRESS PERIOD  12
 UBDSV3 SAVING "  STORAGE CHANGE" ON UNIT  61 AT TIME STEP 10, STRESS PERIOD  12


UNSATURATED ZONE PACKAGE VOLUMETRIC BUDGET FOR  TIME STEP    10 STRESS PERIOD   12
  ------------------------------------------------------------------------------



     CUMULATIVE VOLUMES      L**3       RATES FOR THIS TIME STEP      L**3/T
     ------------------                 ------------------------

           IN:                                      IN:
           ---                                      ---
        INFILTRATION =    87656068.6143          INFILTRATION =           2.9000

          OUT:                                     OUT:
          ----                                     ----
              UZF ET =    27844829.9406                UZF ET =           1.1603
        UZF RECHARGE =     7879692.3965          UZF RECHARGE =       0.0000E+00

            IN - OUT =    51931546.2772              IN - OUT =           1.7397

          STORAGE:                                 STORAGE:
          --------                                 --------
      STORAGE CHANGE =    51931541.6408        STORAGE CHANGE =           1.7397

 PERCENT DISCREPANCY IS DIFFERENCE BETWEEN IN-OUT MINUS CHANGE IN STORAGE
 DIVIDED BY THE AVERAGE OF IN AND OUT TIMES 100

 PERCENT DISCREPANCY =           0.00     PERCENT DISCREPANCY =           0.00






1
  VOLUMETRIC BUDGET FOR ENTIRE MODEL AT END OF TIME STEP   10, STRESS PERIOD  12
  ------------------------------------------------------------------------------

     CUMULATIVE VOLUMES      L**3       RATES FOR THIS TIME STEP      L**3/T
     ------------------                 ------------------------

           IN:                                      IN:
           ---                                      ---
             STORAGE =   509347456.0000               STORAGE =           4.9705
       CONSTANT HEAD =           0.0000         CONSTANT HEAD =           0.0000
               WELLS =           0.0000                 WELLS =           0.0000
     HEAD DEP BOUNDS =     8918789.0000       HEAD DEP BOUNDS =           0.2965
      STREAM LEAKAGE =   492276320.0000        STREAM LEAKAGE =          16.1875
        UZF RECHARGE =     7879697.5000          UZF RECHARGE =           0.0000
               GW ET =           0.0000                 GW ET =           0.0000
     SURFACE LEAKAGE =           0.0000       SURFACE LEAKAGE =           0.0000

            TOTAL IN =  1018422272.0000              TOTAL IN =          21.4545

          OUT:                                     OUT:
          ----                                     ----
             STORAGE =   159851792.0000               STORAGE =          12.3284
       CONSTANT HEAD =           0.0000         CONSTANT HEAD =           0.0000
               WELLS =   578160000.0000                 WELLS =           0.0000
     HEAD DEP BOUNDS =     8520680.0000       HEAD DEP BOUNDS =           0.2723
      STREAM LEAKAGE =    98573152.0000        STREAM LEAKAGE =           2.7052
        UZF RECHARGE =           0.0000          UZF RECHARGE =           0.0000
               GW ET =   173331408.0000                 GW ET =           6.1482
     SURFACE LEAKAGE =           0.0000       SURFACE LEAKAGE =           0.0000

           TOTAL OUT =  1018437056.0000             TOTAL OUT =          21.4541

            IN - OUT =      -14784.0000              IN - OUT =       3.7956E-04

 PERCENT DISCREPANCY =          -0.00     PERCENT DISCREPANCY =           0.00






         TIME SUMMARY AT END OF TIME STEP   10 IN STRESS PERIOD   12
                    SECONDS     MINUTES      HOURS       DAYS        YEARS
                    -----------------------------------------------------------
   TIME STEP LENGTH 1.95033E+05  3250.6      54.176      2.2573     6.18023E-03
 STRESS PERIOD TIME 1.31823E+06  21971.      366.18      15.257     4.17723E-02
         TOTAL TIME 3.02262E+07 5.03770E+05  8396.2      349.84     0.95781    
1
 
 SOLVING FOR HEAD 
                                                   Max.-Head-Change                         Max.-Flux-Residual
  Residual-Control   Outer-Iter.   Inner-Iter.     Column Row Layer    Maximum-Head-Change  Column Row Layer    Maximum-Flux-Residual          L2-NORM 
          0                 1           2             4    9     1       0.6004372310E-01       4    9    1         0.1293004196E+01      0.3917011833E+01
          0                 2           2             4    9     1      -0.5949845555E-02       4    9    1        -0.1293020012E+00      0.3916989232E+00
          0                 3           2             4    9     1       0.5306220017E-03       4    9    1         0.1163716602E-01      0.3525249447E-01
          0                 4           1             4    9     1      -0.4211716122E-04       4    9    1        -0.9321373686E-03      0.2823726774E-02

    ------------------------------------------------
       NWT REQUIRED            4 OUTER ITERATIONS 
       AND A TOTAL OF          7 INNER ITERATIONS.
    ------------------------------------------------

 NO OUTPUT CONTROL FOR STRESS PERIOD   12   TIME STEP   11
 
 SOLVING FOR HEAD 
                                                   Max.-Head-Change                         Max.-Flux-Residual
  Residual-Control   Outer-Iter.   Inner-Iter.     Column Row Layer    Maximum-Head-Change  Column Row Layer    Maximum-Flux-Residual          L2-NORM 
          0                 1           2             4    9     1       0.6491690497E-01       4    9    1         0.1274483443E+01      0.3791390556E+01
          0                 2           2             4    9     1      -0.6432760294E-02       4    9    1        -0.1274504643E+00      0.3791374459E+00
          0                 3           2             4    9     1       0.5736893186E-03       4    9    1         0.1147052238E-01      0.3412192783E-01
          0                 4           1             4    9     1      -0.4553555248E-04       4    9    1        -0.9187892388E-03      0.2733145669E-02

    ------------------------------------------------
       NWT REQUIRED            4 OUTER ITERATIONS 
       AND A TOTAL OF          7 INNER ITERATIONS.
    ------------------------------------------------

 NO OUTPUT CONTROL FOR STRESS PERIOD   12   TIME STEP   12
 
 SOLVING FOR HEAD 
                                                   Max.-Head-Change                         Max.-Flux-Residual
  Residual-Control   Outer-Iter.   Inner-Iter.     Column Row Layer    Maximum-Head-Change  Column Row Layer    Maximum-Flux-Residual          L2-NORM 
          0                 1           2             4    8     1       0.7018048299E-01       4    9    1         0.1252656793E+01      0.3666741513E+01
          0                 2           2             4    8     1      -0.6954326106E-02       4    9    1        -0.1252684153E+00      0.3666731472E+00
          0                 3           2             4    8     1       0.6202039730E-03       4    9    1         0.1127413191E-01      0.3300015795E-01
          0                 4           1             4    8     1      -0.4922756725E-04       4    9    1        -0.9030584074E-03      0.2643285812E-02

    ------------------------------------------------
       NWT REQUIRED            4 OUTER ITERATIONS 
       AND A TOTAL OF          7 INNER ITERATIONS.
    ------------------------------------------------

 NO OUTPUT CONTROL FOR STRESS PERIOD   12   TIME STEP   13
 
 SOLVING FOR HEAD 
                                                   Max.-Head-Change                         Max.-Flux-Residual
  Residual-Control   Outer-Iter.   Inner-Iter.     Column Row Layer    Maximum-Head-Change  Column Row Layer    Maximum-Flux-Residual          L2-NORM 
          0                 1           2             4    8     1       0.7586533375E-01       4    8    1         0.1231114413E+01      0.3543300101E+01
          0                 2           2             4    8     1      -0.7517680078E-02       4    8    1        -0.1231137519E+00      0.3543296773E+00
          0                 3           2             4    8     1       0.6704449675E-03       4    8    1         0.1108021636E-01      0.3188920525E-01
          0                 4           1             4    8     1      -0.5321535693E-04       4    8    1        -0.8875257420E-03      0.2554311957E-02

    ------------------------------------------------
       NWT REQUIRED            4 OUTER ITERATIONS 
       AND A TOTAL OF          7 INNER ITERATIONS.
    ------------------------------------------------

 NO OUTPUT CONTROL FOR STRESS PERIOD   12   TIME STEP   14
 
 SOLVING FOR HEAD 
                                                   Max.-Head-Change                         Max.-Flux-Residual
  Residual-Control   Outer-Iter.   Inner-Iter.     Column Row Layer    Maximum-Head-Change  Column Row Layer    Maximum-Flux-Residual          L2-NORM 
          0                 1           2             4    8     1       0.8177259008E-01       4    8    1         0.1209854089E+01      0.3421249788E+01
          0                 2           2             4    8     1      -0.8103085388E-02       4    8    1        -0.1209884525E+00      0.3421255047E+00
          0                 3           2             4    8     1       0.7226524281E-03       4    8    1         0.1088893219E-01      0.3079086498E-01
          0                 4           1             4    8     1      -0.5735923194E-04       4    8    1        -0.8722039308E-03      0.2466323739E-02

    ------------------------------------------------
       NWT REQUIRED            4 OUTER ITERATIONS 
       AND A TOTAL OF          7 INNER ITERATIONS.
    ------------------------------------------------

 OUTPUT CONTROL FOR STRESS PERIOD   12   TIME STEP   15
    PRINT BUDGET
    PRINT HEAD FOR ALL LAYERS
    SAVE HEAD FOR ALL LAYERS
    SAVE BUDGET

  HEAD DEP BOUNDS   PERIOD   12   STEP    15
 BOUNDARY      1   LAYER   1   ROW    13   COL     1   RATE   -0.272109    
 BOUNDARY      2   LAYER   1   ROW    14   COL     9   RATE    0.296569    



 STREAM LISTING     PERIOD     12   STEP       15

 LAYER ROW COL. STREAM  RCH.  FLOW INTO     FLOW TO   FLOW OUT OF   OVRLND.     DIRECT     STREAM       STREAM     STREAM     STREAM   STREAMBED  STREAMBED
                SEG.NO.  NO.  STRM. RCH.    AQUIFER    STRM. RCH.    RUNOFF     PRECIP       ET          HEAD       DEPTH      WIDTH   CONDCTNC.   GRADIENT

   1    1    1     1     1    2.5000E+01  2.4523E-01   2.4789E+01  3.416E-02  0.000E+00  0.000E+00  1.09423E+03  1.179E+00  1.304E+01  5.869E-02  1.393E+00
   1    2    2     1     2    2.4789E+01  3.7953E-01   2.4463E+01  5.315E-02  0.000E+00  0.000E+00  1.08923E+03  1.175E+00  1.299E+01  9.091E-02  1.392E+00
   1    3    3     1     3    2.4463E+01  3.2343E-01   2.4185E+01  4.555E-02  0.000E+00  0.000E+00  1.08359E+03  1.170E+00  1.293E+01  7.756E-02  1.390E+00
   1    3    4     1     4    2.4185E+01  2.9763E-01   2.3929E+01  4.214E-02  0.000E+00  0.000E+00  1.07857E+03  1.166E+00  1.287E+01  7.144E-02  1.389E+00
   1    4    5     2     1    1.3929E+01  2.9988E-01   1.3629E+01  0.000E+00  0.000E+00  0.000E+00  1.07278E+03  8.447E-01  1.200E+01  7.800E-02  1.282E+00
   1    5    6     2     2    1.3629E+01  2.3009E-01   1.3399E+01  0.000E+00  0.000E+00  0.000E+00  1.06734E+03  8.349E-01  1.200E+01  6.000E-02  1.278E+00
   1    6    6     2     3    1.3399E+01  2.2958E-01   1.3170E+01  0.000E+00  0.000E+00  0.000E+00  1.06262E+03  8.263E-01  1.200E+01  6.000E-02  1.275E+00
   1    7    6     2     4    1.3170E+01  2.2906E-01   1.2941E+01  0.000E+00  0.000E+00  0.000E+00  1.05789E+03  8.177E-01  1.200E+01  6.000E-02  1.273E+00
   1    8    6     2     5    1.2941E+01  2.2855E-01   1.2712E+01  0.000E+00  0.000E+00  0.000E+00  1.05317E+03  8.091E-01  1.200E+01  6.000E-02  1.270E+00
   1    3    5     3     1    1.0000E+01  2.8252E-01   9.9038E+00  1.864E-01  0.000E+00  0.000E+00  1.07555E+03  1.909E+00  9.636E+00  7.227E-02  1.955E+00
   1    3    6     3     2    9.9038E+00  2.4905E-01   9.8412E+00  1.864E-01  0.000E+00  0.000E+00  1.07264E+03  1.727E+00  8.909E+00  6.682E-02  1.864E+00
   1    3    7     3     3    9.8412E+00  1.9718E-01   9.8117E+00  1.677E-01  0.000E+00  0.000E+00  1.06987E+03  1.555E+00  8.218E+00  5.547E-02  1.777E+00
   1    4    8     3     4    9.8117E+00  2.2567E-01   9.8097E+00  2.236E-01  0.000E+00  0.000E+00  1.06682E+03  1.364E+00  7.455E+00  6.709E-02  1.682E+00
   1    5    8     3     5    9.8097E+00  1.5790E-01   9.8381E+00  1.864E-01  0.000E+00  0.000E+00  1.06362E+03  1.164E+00  6.655E+00  4.991E-02  1.582E+00
   1    6    8     3     6    9.8381E+00  5.5980E-02   9.8567E+00  7.455E-02  0.000E+00  0.000E+00  1.06158E+03  1.036E+00  6.145E+00  1.844E-02  1.518E+00
   1    5   10     4     1    1.0000E+01  9.0930E-02   9.9318E+00  2.273E-02  0.000E+00  0.000E+00  1.07836E+03  6.372E-01  1.000E+01  2.500E-02  1.212E+00
   1    5    9     4     2    9.9318E+00  1.8166E-01   9.7956E+00  4.545E-02  0.000E+00  0.000E+00  1.07154E+03  6.333E-01  1.000E+01  5.000E-02  1.211E+00
   1    6    8     4     3    9.7956E+00  1.2701E-01   9.7004E+00  3.182E-02  0.000E+00  0.000E+00  1.06381E+03  6.288E-01  1.000E+01  3.500E-02  1.210E+00
   1    6    8     5     1    1.9557E+01  3.4654E-01   1.9257E+01  4.667E-02  0.000E+00  0.000E+00  1.05885E+03  8.470E-01  2.252E+01  9.008E-02  1.282E+00
   1    7    7     5     2    1.9257E+01  4.2810E-01   1.8887E+01  5.833E-02  0.000E+00  0.000E+00  1.05434E+03  8.419E-01  2.229E+01  1.114E-01  1.281E+00
   1    8    7     5     3    1.8887E+01  2.9634E-01   1.8632E+01  4.083E-02  0.000E+00  0.000E+00  1.05009E+03  8.370E-01  2.207E+01  7.723E-02  1.279E+00
   1    8    6     5     4    1.8632E+01  2.1000E-01   1.8451E+01  2.917E-02  0.000E+00  0.000E+00  1.04708E+03  8.336E-01  2.191E+01  5.478E-02  1.278E+00
   1    9    6     6     1    3.1163E+01  2.6349E-01   3.1002E+01  1.023E-01  0.000E+00  0.000E+00  1.04412E+03  1.391E+00  1.200E+01  6.000E-02  1.464E+00
   1   10    7     6     2    3.1002E+01  2.6323E-01   3.0841E+01  1.023E-01  0.000E+00  0.000E+00  1.03957E+03  1.387E+00  1.200E+01  6.000E-02  1.462E+00
   1   11    7     6     3    3.0841E+01  2.6297E-01   3.0680E+01  1.023E-01  0.000E+00  0.000E+00  1.03502E+03  1.383E+00  1.200E+01  6.000E-02  1.461E+00
   1   12    7     6     4    3.0680E+01  2.6271E-01   3.0520E+01  1.023E-01  0.000E+00  0.000E+00  1.03047E+03  1.378E+00  1.200E+01  6.000E-02  1.459E+00
   1   13    7     6     5    3.0520E+01  4.3768E-02   3.0517E+01  4.091E-02  0.000E+00  0.000E+00  1.02729E+03  1.376E+00  1.200E+01  2.400E-02  6.079E-01
   1   14    9     7     1    1.5000E+02  1.4948E+00   1.4859E+02  8.871E-02  0.000E+00  0.000E+00  1.03987E+03  2.288E+00  5.529E+01  5.593E-01  8.909E-01
   1   13    8     7     2    1.4859E+02  2.3480E+00   1.4634E+02  9.758E-02  0.000E+00  0.000E+00  1.03478E+03  2.278E+00  5.525E+01  6.147E-01  1.273E+00
   1   13    7     7     3    1.4634E+02  2.3576E+00   1.4407E+02  8.871E-02  0.000E+00  0.000E+00  1.02969E+03  2.266E+00  5.520E+01  5.582E-01  1.408E+00
   1   13    6     8     1    1.7459E+02  1.8833E+00   1.7331E+02  6.027E-01  0.000E+00  0.000E+00  1.02485E+03  2.978E+00  4.318E+01  4.400E-01  1.427E+00
   1   13    5     8     2    1.7331E+02  1.3139E+00   1.7260E+02  6.027E-01  0.000E+00  0.000E+00  1.01860E+03  2.971E+00  4.308E+01  4.390E-01  9.976E-01
   1   13    4     8     3    1.7260E+02  4.1803E-01   1.7278E+02  6.027E-01  0.000E+00  0.000E+00  1.01234E+03  2.970E+00  4.306E+01  4.388E-01  3.176E-01
   1   13    3     8     4    1.7278E+02 -9.0012E-01   1.7429E+02  6.027E-01  0.000E+00  0.000E+00  1.00610E+03  2.975E+00  4.314E+01  4.396E+00 -6.825E-02
   1   13    2     8     5    1.7429E+02 -9.9152E-01   1.7588E+02  6.027E-01  0.000E+00  0.000E+00  9.99860E+02  2.985E+00  4.328E+01  4.411E+00 -7.493E-02
   1   13    1     8     6    1.7588E+02 -7.7513E-01   1.7702E+02  3.616E-01  0.000E+00  0.000E+00  9.94869E+02  2.994E+00  4.341E+01  2.654E+00 -9.735E-02



 UBDSV3 SAVING "     NETRECHARGE" ON UNIT 100 AT TIME STEP 15, STRESS PERIOD  12
 UBDSV3 SAVING "    NETDISCHARGE" ON UNIT 101 AT TIME STEP 15, STRESS PERIOD  12
 UBDSV3 SAVING "           GW ET" ON UNIT  61 AT TIME STEP 15, STRESS PERIOD  12
 UBDSV3 SAVING "    UZF RECHARGE" ON UNIT  61 AT TIME STEP 15, STRESS PERIOD  12
 UBDSV3 SAVING " SURFACE LEAKAGE" ON UNIT  61 AT TIME STEP 15, STRESS PERIOD  12
 UBDSV3 SAVING "       HORT+DUNN" ON UNIT  61 AT TIME STEP 15, STRESS PERIOD  12
 UBDSV3 SAVING "  STORAGE CHANGE" ON UNIT  61 AT TIME STEP 15, STRESS PERIOD  12


UNSATURATED ZONE PACKAGE VOLUMETRIC BUDGET FOR  TIME STEP    15 STRESS PERIOD   12
  ------------------------------------------------------------------------------



     CUMULATIVE VOLUMES      L**3       RATES FOR THIS TIME STEP      L**3/T
     ------------------                 ------------------------

           IN:                                      IN:
           ---                                      ---
        INFILTRATION =    91454390.9658          INFILTRATION =           2.9000

          OUT:                                     OUT:
          ----                                     ----
              UZF ET =    29376251.3620                UZF ET =           1.1749
        UZF RECHARGE =     7879692.3965          UZF RECHARGE =       0.0000E+00

            IN - OUT =    54198447.2073              IN - OUT =           1.7251

          STORAGE:                                 STORAGE:
          --------                                 --------
      STORAGE CHANGE =    54198442.6172        STORAGE CHANGE =           1.7251

 PERCENT DISCREPANCY IS DIFFERENCE BETWEEN IN-OUT MINUS CHANGE IN STORAGE
 DIVIDED BY THE AVERAGE OF IN AND OUT TIMES 100

 PERCENT DISCREPANCY =           0.00     PERCENT DISCREPANCY =           0.00






1
              HEAD IN LAYER   1 AT END OF TIME STEP  15 IN STRESS PERIOD   12
  ---------------------------------------------------------------------------

           1       2       3       4       5       6       7       8       9      10
 ...................................................................................
   1  1032.53 1029.34 6999.00 6999.00 6999.00 6999.00 6999.00 6999.00 6999.00 6999.00
   2  1029.60 1025.32 1023.32 6999.00 6999.00 1021.94 1022.23 1022.41 6999.00 6999.00
   3  6999.00 1022.29 1021.00 1019.96 1019.91 1020.49 1021.32 1021.67 6999.00 6999.00
   4  1020.16 1020.17 1019.23 1018.33 1018.15 1018.28 1019.23 1020.92 1020.97 6999.00
   5  1019.25 1018.30 1017.24 1016.63 1016.84 1017.49 1018.16 1019.16 1020.30 1021.26
   6  1018.30 1016.91 1015.49 1014.93 1015.39 1016.59 1017.64 1018.72 1019.79 1021.17
   7  1017.63 1015.75 1014.20 1013.70 1014.36 1015.85 1017.17 1018.09 1019.57 6999.00
   8  6999.00 1014.71 1013.33 1012.97 1013.76 1015.35 1016.62 1017.98 1019.87 6999.00
   9  6999.00 1013.72 1012.79 1012.70 1013.58 1015.17 1016.46 1018.22 1020.72 6999.00
  10  6999.00 1012.60 1012.43 1012.85 1013.88 1015.58 1017.11 1019.17 1021.92 1022.83
  11  6999.00 1010.64 1011.55 1013.09 1014.59 1016.65 1018.68 1021.36 1024.48 6999.00
  12  1000.98 1005.98 1009.51 1012.38 1015.11 1018.21 1021.10 1025.59 1029.31 6999.00
  13   995.16 1000.08 1006.30 1011.39 1015.60 1020.57 1025.46 1030.96 1033.98 6999.00
  14  6999.00 1005.59 1008.35 1012.43 1016.58 1021.08 1026.33 1032.39 1037.20 6999.00
  15  6999.00 6999.00 1012.00 1014.46 1017.58 1020.39 6999.00 6999.00 6999.00 6999.00

 HEAD WILL BE SAVED ON UNIT   58 AT END OF TIME STEP   15, STRESS PERIOD   12
1
  VOLUMETRIC BUDGET FOR ENTIRE MODEL AT END OF TIME STEP   15, STRESS PERIOD  12
  ------------------------------------------------------------------------------

     CUMULATIVE VOLUMES      L**3       RATES FOR THIS TIME STEP      L**3/T
     ------------------                 ------------------------

           IN:                                      IN:
           ---                                      ---
             STORAGE =   515412160.0000               STORAGE =           4.3940
       CONSTANT HEAD =           0.0000         CONSTANT HEAD =           0.0000
               WELLS =           0.0000                 WELLS =           0.0000
     HEAD DEP BOUNDS =     9307164.0000       HEAD DEP BOUNDS =           0.2966
      STREAM LEAKAGE =   513507104.0000        STREAM LEAKAGE =          16.2237
        UZF RECHARGE =     7879697.5000          UZF RECHARGE =           0.0000
               GW ET =           0.0000                 GW ET =           0.0000
     SURFACE LEAKAGE =           0.0000       SURFACE LEAKAGE =           0.0000

            TOTAL IN =  1046106112.0000              TOTAL IN =          20.9142

          OUT:                                     OUT:
          ----                                     ----
             STORAGE =   175615760.0000               STORAGE =          11.8280
       CONSTANT HEAD =           0.0000         CONSTANT HEAD =           0.0000
               WELLS =   578160000.0000                 WELLS =           0.0000
     HEAD DEP BOUNDS =     8877156.0000       HEAD DEP BOUNDS =           0.2721
      STREAM LEAKAGE =   102084392.0000        STREAM LEAKAGE =           2.6668
        UZF RECHARGE =           0.0000          UZF RECHARGE =           0.0000
               GW ET =   181383120.0000                 GW ET =           6.1469
     SURFACE LEAKAGE =           0.0000       SURFACE LEAKAGE =           0.0000

           TOTAL OUT =  1046120448.0000             TOTAL OUT =          20.9139

            IN - OUT =      -14336.0000              IN - OUT =       3.8147E-04

 PERCENT DISCREPANCY =          -0.00     PERCENT DISCREPANCY =           0.00






         TIME SUMMARY AT END OF TIME STEP   15 IN STRESS PERIOD   12
                    SECONDS     MINUTES      HOURS       DAYS        YEARS
                    -----------------------------------------------------------
   TIME STEP LENGTH 3.14103E+05  5235.0      87.251      3.6354     9.95332E-03
 STRESS PERIOD TIME 2.62800E+06  43800.      730.00      30.417     8.32763E-02
         TOTAL TIME 3.15360E+07 5.25600E+05  8760.0      365.00     0.99932    
1

 Run end date and time (yyyy/mm/dd hh:mm:ss): 2018/04/10 13:28:17
 Elapsed run time:  0.886 Seconds

